! wb97x-v def2-tzvp def2/J RIJCOSX DEFGRID2 scfconv7 GCP(DFT/TZ) printgap
%output
    printlevel normal
end
* xyz 0 1
C 1.4127215776926492 0.5311070327222492 0.0008037762487524527
O 0.5917820699521236 -0.6610405427554731 0.003118010113334538
C -0.7428810533884682 -0.4873813068318104 0.00010856125715587364
O -1.3348858650376607 0.5598505291964595 -0.00513910502133063
H 0.7890598909839679 1.4260744901712163 0.02282558695371786
H 2.0223393884281067 0.5096902139095788 -0.9050505758693485
H 2.054999968227202 0.4866628917312354 0.8826905983081804
H -1.219378091947485 -1.4810089006437492 0.0003863399319322649
*
