! wb97x-v def2-tzvp def2/J RIJCOSX DEFGRID2 scfconv7 GCP(DFT/TZ) printgap
%output
    printlevel normal
end
* xyz 0 1
C -1.962252341837215 -0.17974263714252178 0.5094387497185047
C -1.172625646795241 -0.16244309764563314 -0.7952279344307378
C 0.11024992588048942 0.6419821525266961 -0.7276852974873834
Cl 1.320466533768809 -0.1041096977756476 0.42652945248203245
H -2.2295480662874576 0.8361967478490862 0.8188595803562609
H -2.887019466583964 -0.7515506786118908 0.39498807760161714
H -1.378362752552821 -0.6351818622720082 1.3133520330990558
H -0.9415185469924412 -1.18347332427438 -1.1180669102722054
H -1.7802043717434888 0.29007668973106077 -1.5917959855446888
H -0.0665773271693479 1.6567126610012446 -0.3616946400725428
H 0.61316191940342 0.6870564701906717 -1.6956306682366804
*
