! r2scan-3c def2/J RI DEFGRID2 scfconv6 printgap
%output
    printlevel normal
end
* xyz 0 1
C -0.6763414682 -2.1697440914 -1.4821e-06
C 0.2132369643 -0.9676879721 3.03534e-05
C 1.5968800699 -1.08744625 -4.94617e-05
C 2.4169972113 0.0272051724 3.69362e-05
C 1.8619342605 1.2946941238 -4.8e-06
C 0.4861120081 1.443415176 2.19198e-05
C -0.320536326 0.3187653091 0.0001058311
Cl -2.0412635467 0.5282097902 -1.93988e-05
H -1.3201297956 -2.1624812295 -0.8788430736
H -0.0899748709 -3.0845777595 0.0004523387
H -1.3207799059 -2.1620312634 0.8782440526
H 2.0351043719 -2.0749145313 -0.0001685598
H 3.4896391198 -0.0946538132 -7.76795e-05
H 2.4948697735 2.1689133799 -0.0003108737
H 0.0373579966 2.4246370481 -0.0002738281
*
