! wb97x-v def2-tzvp def2/J RIJCOSX DEFGRID2 scfconv7 GCP(DFT/TZ) printgap
%output
    printlevel normal
end
* xyz 0 1
C -1.2502211696358825 -0.9671224789943907 1.2588175166243245
C -1.0086026008421105 -0.1160565058426951 0.00011955184076489699
C -1.936425412604956 1.1000082203268982 0.000845392718668667
C -1.2503674036501753 -0.9657376294279142 -1.2594786472124075
C 0.43846083518746415 0.3723659295940889 0.00039033790919903397
O 0.7947142480823391 1.5277519512163447 0.0013299947989453185
O 1.3103920689409136 -0.6669856173243862 -0.00047998626022077603
C 2.702525253853316 -0.289378827502686 -0.0001902134759304949
H -1.0621249397122978 -0.38507297240720145 2.1667691479676994
H -2.294052350895402 -1.2969971009499952 1.2781242209825665
H -0.6067206668587101 -1.8498311690997842 1.2722555055934974
H -1.7685846601541915 1.721326837907963 0.8839935145274571
H -2.9781674967574845 0.7644849286212293 0.0003299284273317381
H -1.7681473189234458 1.7227106503613292 -0.8812437731645117
H -2.294151494460354 -1.2957540540717387 -1.2789079837408448
H -1.0625719301710796 -0.38264769294688833 -2.1668234454012363
H -0.6067424080999124 -1.848335823735463 -1.274054415335218
H 2.9381091535882167 0.29727867997212426 0.8915852811210921
H 2.936952593536918 0.30317986449185896 -0.8883307084918759
H 3.2589577990421748 -1.2266512100528877 -0.003574325732721493
*
