! pbe def2-sv(p) def2/J RI DEFGRID1 loosescf d4 GCP(DFT/SV(P)) printgap
%output
    printlevel normal
end
* xyz 0 1
C 2.3425736026 0.018165815 0.238135841
N 0.8997653593 0.0157527228 0.2739666849
C 0.3188689106 1.1432370192 -0.4334388519
C -1.1858826591 1.2221611155 -0.0828364784
N -1.6797842101 -0.0119663608 0.5010295216
C -1.1894955887 -1.1460144003 -0.2555208694
C 0.35289722 -1.2358008881 -0.2246841427
H 2.7451993127 -0.0644507621 -0.7847496749
H 2.7127654667 -0.8231798578 0.8233642412
H 2.7099239823 0.9417543758 0.683815873
H 0.8307746373 2.0525417958 -0.1127525083
H 0.4585249698 1.0438069659 -1.5253314657
H -1.375352786 2.0296424043 0.6253911262
H -1.7694997837 1.4189202262 -0.9879010309
H -1.3276530116 -0.0880614086 1.4515015874
H -1.6333755447 -2.0557899006 0.1529615923
H -1.5443802735 -1.0271034499 -1.2832464082
H 0.6772254861 -2.0278606204 0.4563519082
H 0.7412901852 -1.4736770625 -1.2323783128
*
