! r2scan-3c def2/J RI DEFGRID2 scfconv6 printgap
%output
    printlevel normal
end
* xyz 0 1
C 1.2713545766 -0.2438385093 -0.0005526548
C -0.0158210025 0.5646925861 -0.0487663605
O -1.1790804917 -0.2362656358 0.0402974834
H 1.3397134389 -0.7956624966 0.9359427712
H 1.3091036744 -0.9495897224 -0.8292160465
H 2.1298968234 0.4184254521 -0.073207214
H -0.0691586893 1.1288609192 -0.9886907254
H -0.0386726921 1.2828558984 0.7809980939
H -0.9161780607 -1.1579825228 0.1222186983
*
