! pbe def2-sv(p) def2/J RI DEFGRID1 loosescf d4 GCP(DFT/SV(P)) printgap
%output
    printlevel normal
end
* xyz 0 1
C 0.6382366594 1.690017986 -0.0323372393
C 1.4078428551 0.3906562757 -0.2731224834
H 1.591343629 0.2636294991 -1.3526286811
C 0.5450024425 -0.7826520678 0.2050189783
H 0.3721706316 -0.682451682 1.2901151178
C -0.8087956391 -0.7445553841 -0.5172070492
H -0.6490418506 -0.9059767927 -1.5885083622
C -1.4593517917 0.6335191495 -0.3007571413
H -2.3462240944 0.7331040491 -0.9466897141
O -0.6232393051 1.6851914026 -0.6789688316
O -1.8283642893 0.6942152846 1.0518986899
O -1.6439147068 -1.7811021679 -0.0748082316
O 1.2286069574 -1.9860769578 -0.0594977645
O 2.6213532132 0.4534635371 0.4265730548
H 1.1815747654 2.5381182885 -0.4474207404
H 0.5221811002 1.8308330608 1.0495687074
H -2.1986652438 1.5654939378 1.2335558126
H -1.9875866941 -1.5241062688 0.7918627873
H 0.5719135835 -2.6941479188 -0.0724717453
H 2.991958303 -0.4384226728 0.4277841172
*
