! r2scan-3c def2/J RI DEFGRID2 scfconv6 printgap
%output
    printlevel normal
end
* xyz 0 1
C 0.5963660458 1.7042062896 -0.0002918479
C 1.3991169811 0.4237551025 -0.25676156
H 1.6048542479 0.3389733758 -1.3406898978
C 0.5512275589 -0.7799467556 0.1716906233
H 0.3914066686 -0.7401755626 1.2555615783
C -0.8059046474 -0.7417185129 -0.5392577053
H -0.6534891672 -0.8667050162 -1.6247165714
C -1.4726687753 0.6302752083 -0.2859529613
H -2.3704960312 0.7205142767 -0.9181645498
O -0.6432463386 1.6711066732 -0.6826918583
O -1.8102416324 0.7466923746 1.0655400291
O -1.6662309896 -1.7386563647 -0.0432263063
O 1.2195332388 -2.004180866 -0.0570909664
O 2.6051283652 0.4774802677 0.458424851
H 1.1297309684 2.571542266 -0.3877192654
H 0.4422202494 1.8223466574 1.0773218903
H -2.2414031426 -0.080910183 1.3176235341
H -1.1418709774 -2.538675683 0.0969050258
H 1.4239676372 -2.0794979988 -0.9981624253
H 2.9034664985 -0.4293251785 0.6112859533
*
