! wb97x-v def2-tzvp def2/J RIJCOSX DEFGRID2 scfconv7 GCP(DFT/TZ) printgap
%output
    printlevel normal
end
* xyz 0 1
C -2.4499054330099526 -1.636460395683413e-05 0.010907101920605781
C -0.9454828477130629 -5.703016881025021e-05 -0.01154717877449219
C -0.22906211341885263 -1.1992526008306565 -0.008680926738421224
C 1.1621943609756702 -1.2017861345566085 0.0025912888817651476
C 1.8638561537175682 4.344553561702461e-05 0.008722853047097728
C 1.162095388788484 1.201844268472402 0.0024380173428008287
C -0.2291325946095372 1.1992134088681163 -0.00882630041465351
H -2.8550140283197463 -0.8874918077275887 -0.48278493346666174
H -2.8233944273188745 0.0024806039952981595 1.0417327715671314
H -2.8550053620808034 0.8851269331159477 -0.48699260431615243
H -0.7693163656082838 -2.1422604451251437 -0.01652316783067982
H 1.6997011112931664 -2.1450837677968493 0.002259082354526759
H 2.9490835402375075 9.928933530753963e-05 0.014036361486712133
H 1.699561221136509 2.145165208404103 0.00202009594729773
H -0.7694770609026225 2.1421722766398665 -0.016784414228472194
*
