! wb97x-v def2-tzvp def2/J RIJCOSX DEFGRID2 scfconv7 GCP(DFT/TZ) printgap
%output
    printlevel normal
end
* xyz 0 1
C -3.997690411943754 -0.6990127523304692 0.004743694457316244
C -3.997687513545851 0.6990488351309615 0.004889490811204959
C -2.7997046820698137 1.3945046037615194 0.0019422863728365753
C -1.5846046883235596 0.700995737287002 -0.0006181463501474296
C -1.584607756999471 -0.7009704930173816 -0.000867744053389071
C -2.7997111105848598 -1.3944740860225344 0.0016099056768889934
C -0.318788008545561 -1.4642079775168184 -0.003253667147920908
O -0.36295039700217463 -2.7095668407319207 -0.005604364385889074
C 0.9339931600252929 -0.7182904617964555 -0.0027542314396955462
C 2.160744358303339 -1.425280169601829 0.0005467383041337209
C 3.3699506402712203 -0.6812764779283307 0.007436739420266654
C 3.3699535084080665 0.6812637082735195 0.007325069219269209
C 2.160756200959965 1.4252781524678277 0.000343301539519557
C 0.9340024244849382 0.7183030088743206 -0.002745861861582121
C -0.31878109287946316 1.4642293570562848 -0.002587087576203964
O -0.3629364973753154 2.7095858018941055 -0.004550748567465849
N 2.23015494452369 2.778209991864222 -0.0050222674568573605
N 2.2301052282939122 -2.7781955604454396 -0.0035141088289082855
H -4.9384007082546795 -1.2404694671942942 0.007068782322535607
H -4.938396089385796 1.2405089003689411 0.007323016466530206
H -2.773556122013484 2.478250560171558 0.0019772546349248136
H -2.7735691024877016 -2.4782196727070285 0.0013511403437635229
H 4.313962612421378 -1.2196141021577063 0.011995578210931536
H 4.313970094269117 1.2195956961204708 0.011650911221178088
H 3.124059304811409 3.2337094403691102 0.01708621508297529
H 1.353486064091957 3.2892203197980407 0.0015111970638857159
H 1.353444362517894 -3.289244726844611 -0.0007451781755141033
H 3.1240987141836434 -3.2337735719103247 0.012148080476052193
*
