! r2scan-3c def2/J RI DEFGRID2 scfconv6 printgap
%output
    printlevel normal
end
* xyz 0 1
C -2.2987382308 0.223819935 0.5857554155
C -1.2819417133 0.5672312972 -0.5028556045
C 0.0085445697 -0.1772777932 -0.2489842069
O 0.1378831003 -1.3713758261 -0.298218795
O 0.9978632118 0.6728793717 0.052385246
C 2.2775940528 0.1246221766 0.3418153061
H -2.4466029464 -0.8523392872 0.6284639481
H -1.9476191896 0.5652051589 1.5568018742
H -3.2515120892 0.7019308965 0.3733776751
H -1.0790483812 1.6374487676 -0.5220896409
H -1.6686243761 0.2513932429 -1.4732113063
H 2.442416267 0.148690401 1.4201879909
H 3.0197481575 0.7422586517 -0.1612522874
H 2.3292743738 -0.9060131376 -0.0140777159
*
