! pbe def2-sv(p) def2/J RI DEFGRID1 loosescf d4 GCP(DFT/SV(P)) printgap
%output
    printlevel normal
end
* xyz 0 1
C 1.9437158886 0.0001051669 0.7331426063
N 1.1049166879 -8.8462e-06 -0.4454145707
C 0.2850522235 1.1934215589 -0.5879905163
C -0.9468214954 1.1947880678 0.3326418971
N -1.7604710654 -3.10834e-05 0.1623774942
C -0.9467416847 -1.1948597264 0.3326358475
C 0.2850946592 -1.1934171283 -0.5880212949
H 1.3957996378 0.001225513 1.6857598982
H 2.5813361993 0.8834862912 0.7033665431
H 2.5796396324 -0.8844187052 0.7046010387
H 0.9064961276 2.0704929565 -0.3972884749
H -0.0497630074 1.230596343 -1.6318789316
H -0.632199673 1.230517322 1.3798147194
H -1.5669445461 2.070975263 0.132288883
H -2.1538390068 -0.000110948 -0.7763328656
H -0.6321782539 -1.2306296781 1.3798266279
H -1.5668657683 -2.0710118325 0.1321626444
H 0.9065814248 -2.0705327243 -0.397533465
H -0.0499011352 -1.2304870151 -1.6318553259
*
