! wb97x-v def2-tzvp def2/J RIJCOSX DEFGRID2 scfconv7 GCP(DFT/TZ) printgap
%output
    printlevel normal
end
* xyz 0 1
C -0.6199967502242781 0.4278734994028235 0.9668118491829107
C 0.6200221183902331 -0.4280110533409779 0.9667303551522862
Cl 1.7217182129003687 -0.04087815393910312 -0.41912952939357323
Cl -1.7217244069154816 0.04093951926108167 -0.41907459815493947
H -0.37594675405849143 1.489774757375876 0.900347975351537
H -1.1860330422214282 0.2374906770077437 1.8839005505601332
H 1.1860856078844528 -0.23776141131015804 1.8838303147680933
H 0.3759691162801598 -1.489902840499742 0.9001174080642458
*
