! wb97x-v def2-tzvp def2/J RIJCOSX DEFGRID2 scfconv7 GCP(DFT/TZ) printgap
%output
    printlevel normal
end
* xyz 0 1
C 0.4708662751499158 0.7296498445588064 -3.0150216776093086e-05
C 0.3964674462231166 -0.7725576274611864 3.5181516688770397e-05
C -0.8673210620347782 0.042922203021561654 -2.4725000305893638e-05
H 0.7888422005023802 1.2224630648185233 -0.9126419811026621
H 0.7887798100856622 1.2225366943184206 0.9125631373190033
H 0.6642325640886801 -1.294405418558705 -0.912546842821327
H 0.6642205732864761 -1.2943605866172831 0.9126484034991547
H -1.4529525108108974 0.07181479018130267 -0.9127124352048128
H -1.452972505282795 0.07191771250687135 0.9126459994441072
*
