! r2scan-3c def2/J RI DEFGRID2 scfconv6 printgap
%output
    printlevel normal
end
* xyz 0 1
C 1.9505384326 0.0001255743 0.7064510226
N 1.0976091443 9.5613e-06 -0.4623658513
C 0.2716391729 1.1855651886 -0.5973751921
C -0.9377525271 1.1964494965 0.3467663651
N -1.7227392314 -9.5622e-06 0.0968606947
C -0.9377290113 -1.1964928783 0.3466938522
C 0.2717565761 -1.1856256214 -0.597321784
H 2.5871541641 0.8839247203 0.6701432201
H 2.5870089408 -0.8838758737 0.6702010924
H 1.4163881772 0.000105559 1.6672127224
H 0.8896135658 2.0697319679 -0.4288527216
H -0.0974877672 1.2046112633 -1.6268264742
H -0.5904467084 1.2607935707 1.394303347
H -1.5578528887 2.0712493914 0.1395489208
H -2.5612011771 -1.89999e-05 0.6699304368
H -0.5903842951 -1.2608166938 1.394192401
H -1.5577891745 -2.0713239366 0.1394787003
H 0.8897756226 -2.0697491775 -0.4286883298
H -0.0974107708 -1.2048910868 -1.6267584506
*
