! r2scan-3c def2/J RI DEFGRID2 scfconv6 printgap
%output
    printlevel normal
end
* xyz 0 1
C 2.0339367951 0.761248795 0.0003720794
C 0.7810247966 -0.0849893088 -0.0003063976
O 0.8305900813 -1.2936806592 0.0001174615
C -0.505751168 0.6517124585 -0.0009645903
C -1.6677622621 0.0236967803 -0.7407318444
C -1.6671273474 0.0253533989 0.7413356281
H 2.6269691372 0.5099560018 0.8777794802
H 2.6296192885 0.5077537875 -0.8745297214
H 1.8184114149 1.824661602 -0.0012952892
H -0.4367028894 1.730817813 -0.002427326
H -2.3372899802 0.6839021902 -1.2704443847
H -1.4639551867 -0.9100807774 -1.242327973
H -2.3363012196 0.6864731482 1.2703489539
H -1.4626617131 -0.9073783907 1.2445486379
*
