! r2scan-3c def2/J RI DEFGRID2 scfconv6 printgap
%output
    printlevel normal
end
* xyz 0 1
C -2.4142761053 -0.7019656014 -3.02501e-05
C -2.4142756364 0.7019694346 1.65628e-05
C -1.2347512639 1.3919054905 2.27866e-05
C 4.235e-07 0.7098371142 9.8477e-06
C 1.2347499997 1.3919038626 -1.556e-05
C 2.4142774354 0.7019685536 -2.50603e-05
C 2.4142770924 -0.7019662941 4.2959e-06
C 1.2347536732 -1.391904644 2.57325e-05
C -8.478e-07 -0.7098421291 9.8668e-06
C -1.2347548241 -1.3919070913 -2.03168e-05
H -3.3561932488 -1.2311809415 -1.5302e-05
H -3.356189681 1.2311909313 1.8477e-06
H -1.2295793993 2.4729599663 1.8596e-06
H 1.2295873356 2.4729573087 -1.72686e-05
H 3.3561884125 1.2311933169 -1.68253e-05
H 3.3561924318 -1.2311876308 2.94121e-05
H 1.2295828866 -2.4729573643 3.13536e-05
H -1.2295881032 -2.4729600437 9.8872e-06
*
