! wb97x-v def2-tzvp def2/J RIJCOSX DEFGRID2 scfconv7 GCP(DFT/TZ) printgap
%output
    printlevel normal
end
* xyz 0 1
C -0.6793976536883845 -2.1820957593801666 -5.276083880982733e-06
C 0.2021891264585931 -0.9693908859968402 -1.8745032067235668e-05
C 1.5953804886010505 -1.0857740968942482 -3.216391545376685e-05
C 2.425788314879145 0.029274560950559584 -8.295140136882137e-05
C 1.87201928063799 1.3048601815007126 -0.00010353541852663891
C 0.4901239891664182 1.4585984327632517 -8.474278812290981e-05
C -0.3181565807574412 0.3287770144638111 -5.2033102625481126e-05
Cl -2.0630980661473606 0.5554535443613808 -8.627363949392482e-05
H -1.3318092417093934 -2.1955995316127104 -0.8792198689832679
H -0.07753262540719935 -3.09324466075545 0.0003725103093176818
H -1.3323470412612959 -2.1952086756130025 0.8788110564438408
H 2.0302247117799657 -2.081190980547391 -9.246478552952588e-06
H 3.5030542443407415 -0.09929705829445472 -0.00010289036500085105
H 2.508547598169632 2.183467961254638 -0.00013965507275614448
H 0.03811946361546853 2.443673121547207 -0.00010389992180080152
*
