! r2scan-3c def2/J RI DEFGRID2 scfconv6 printgap
%output
    printlevel normal
end
* xyz 0 1
C -2.1763094481 0.2696071662 -0.1275407934
C -0.9171286436 -0.3931734902 0.3948458031
S 0.5651926993 0.3733378851 -0.3587480541
C 1.8317335545 -0.6312728038 0.4641254114
H -2.1724575809 1.3300893526 0.112447447
H -2.2393653852 0.1628327829 -1.2078001277
H -3.0535357671 -0.1899754772 0.3233948912
H -0.8982601204 -1.4548177556 0.1429487561
H -0.8303060146 -0.2751570253 1.4762451566
H 1.6941216713 -1.6771195747 0.2023285055
H 1.7634386927 -0.4940598391 1.5401268578
H 2.793865501 -0.2818796074 0.1052701422
*
