! wb97x-v def2-tzvp def2/J RIJCOSX DEFGRID2 scfconv7 GCP(DFT/TZ) printgap
%output
    printlevel normal
end
* xyz 0 1
C 1.9508096163125566 -0.13163546366817233 2.688740601376307e-05
C 0.5664972815883209 0.5130895160419202 -4.33797654039098e-06
C -0.5664961775125493 -0.5130892585209633 -2.489393566943615e-05
C -1.9508081288177275 0.13163658791540128 2.0033517624585992e-05
H 2.7456030164852043 0.6203964324547903 0.00019900272837096482
H 2.0878449073400445 -0.764006624390789 0.8838697030681415
H 2.0880048219211353 -0.7637731935523583 -0.8839571536847857
H 0.4616634467595813 1.1641843768044502 0.8779570440649153
H 0.46170318356295637 1.1641849617615003 -0.8779706068923984
H -0.46169645750405885 -1.1641592552628097 -0.8780091056137262
H -0.4616684933900012 -1.164209640305032 0.8779185515632824
H -2.087946613899027 0.7639105631501392 -0.8838756836899457
H -2.0878988913848358 0.7638718741311459 0.8839511461603634
H -2.7456022072366735 -0.6203946110761028 2.5858755579283285e-05
*
