! pbe def2-sv(p) def2/J RI DEFGRID1 loosescf d4 GCP(DFT/SV(P)) printgap
%output
    printlevel normal
end
* xyz 0 1
C 0.8440495559 1.3921471272 -0.6201757621
C 1.5978665261 0.1874151231 -0.0376643883
H 2.5902590513 0.1152183113 -0.4994391306
C 0.7939567829 -1.0997734487 -0.3375379916
H 1.2529965602 -1.9310695828 0.2282083818
C -0.6620575148 -0.930528958 0.1307139118
H -1.2543244587 -1.7741387677 -0.250112763
C -1.2571286475 0.373300688 -0.4486057321
H -1.3046603219 0.2812055798 -1.5447797265
O -0.4539429145 1.4742506786 -0.0843038095
O -2.5368467008 0.5901468374 0.0024626005
O -0.7628919284 -0.8333252216 1.5349675077
O 0.7537968264 -1.3978925008 -1.7106646012
O 1.8147557608 0.3304415863 1.3382661668
H 0.8032330698 1.3072255388 -1.7152568646
H 1.3437199165 2.3200095875 -0.3368547174
H -2.497604527 0.6499578428 0.9670511529
H -0.4195672328 -1.6397019592 1.9349907247
H 1.6536488594 -1.5233192212 -2.0332255906
H 0.9542638036 0.5201226935 1.7439994695
*
