! r2scan-3c def2/J RI DEFGRID2 scfconv6 printgap
%output
    printlevel normal
end
* xyz 0 1
C -2.5854249027 0.5984821921 0.0011998433
C -1.2337084948 -0.0545602461 0.0001099514
C -1.1483754123 -1.4430737548 -0.0003614738
C 0.0752893185 -2.0824575488 -0.0006392875
C 1.2404687246 -1.3379248433 8.26962e-05
C 1.1687447965 0.0465401669 0.0002487916
C -0.0661188154 0.7046247618 -0.0007632502
C -0.0476524543 2.2038777812 -0.0012290564
O 2.2963339958 0.818046204 0.0009258393
H -2.71968954 1.2100968703 -0.8901789339
H -3.3686435223 -0.1548573782 0.0189324996
H -2.7057946273 1.2379129173 0.8745245427
H -2.0558373018 -2.029024979 -0.0002500982
H 0.1264879179 -3.1610110756 -0.0009735189
H 2.2063314369 -1.8267565614 0.0005387382
H 0.457545302 2.5636288447 0.894410256
H 0.5246778496 2.5610197871 -0.8563408675
H -1.0445298461 2.6274708307 -0.0397252795
H 3.0728795518 0.2463087808 0.0004749251
*
