! pbe def2-sv(p) def2/J RI DEFGRID1 loosescf d4 GCP(DFT/SV(P)) printgap
%output
    printlevel normal
end
* xyz 0 1
C 0.8668121983 1.3776743197 -0.6004912577
C 1.5925911192 0.1528572241 -0.0200678885
H 2.5645384184 0.0621707281 -0.5158040826
C 0.7715432642 -1.1168223607 -0.3194379465
H 1.2006167054 -1.9452182304 0.2637298846
C -0.6863312199 -0.9163826376 0.1336249074
H -1.3076118072 -1.754531542 -0.2265958096
C -1.246003796 0.3812449578 -0.474633871
H -1.2815774908 0.2784367331 -1.5796773268
O -0.4595343545 1.487978496 -0.1279777842
O -2.5159344176 0.5798620152 0.0576828068
O -0.7287848699 -0.8455580836 1.535672984
O 0.8453361636 -1.3695383253 -1.7010868231
O 1.8487332532 0.2837208776 1.3467998344
H 0.8698456613 1.3063342024 -1.6963347771
H 1.3665919545 2.291934236 -0.2796244761
H -2.7278655927 1.5167921173 -0.0311437952
H -1.5723213039 -0.4306811179 1.7674293085
H 0.4429036781 -2.2248969082 -1.8892207351
H 1.0051714488 0.1804613229 1.815353835
*
