! r2scan-3c def2/J RI DEFGRID2 scfconv6 printgap
%output
    printlevel normal
end
* xyz 0 1
C -2.1926386527 0.3859283674 0.6766368246
C -1.3174052079 0.4488065731 -0.5765695086
C 0.0015729629 -0.2324823291 -0.2956887782
O 0.1928763606 -1.4182151792 -0.3453696335
O 0.9318329215 0.663442981 0.0569785656
C 2.222747123 0.1761177387 0.3991357996
H -3.1602517426 0.8401229842 0.4790429229
H -2.3462323771 -0.648415956 0.9745686528
H -1.7191102404 0.9193624491 1.4975330014
H -1.1331042413 1.4852999522 -0.8569123852
H -1.8095439064 -0.0762547801 -1.3955334563
H 2.8998606581 0.3278530724 -0.4431050735
H 2.1685635797 -0.8878586594 0.6366718961
H 2.5679744079 0.7454133424 1.2604017152
*
