! wb97x-v def2-tzvp def2/J RIJCOSX DEFGRID2 scfconv7 GCP(DFT/TZ) printgap
%output
    printlevel normal
end
* xyz 0 1
C 2.048323679263994 0.758231068535622 0.00022062530486474145
C 0.7718489964676261 -0.05857728777328602 -0.00033389121899192416
O 0.8146924418279188 -1.2768856177849877 0.00010013172555052487
C -0.5217794292222502 0.6719570407893573 -0.0007809136725420863
C -1.679724488042205 0.014561579875858096 -0.740576338997707
C -1.679313306326372 0.01606364027610912 0.741151783485509
H 2.637593754384295 0.4847118055487037 0.880638516254798
H 2.6402897443308095 0.4818455883708003 -0.8774596093592579
H 1.8751426359473107 1.835925732361022 -0.001675220514170029
H -0.4838291635671383 1.7555757897743873 -0.0017969381899386669
H -2.3570146357772783 0.678648360723158 -1.2653972658042687
H -1.433817904062134 -0.9181864036091412 -1.236104884874784
H -2.3562636510747166 0.6812418015673083 1.265030672548057
H -1.4331486224387961 -0.9156671421352508 1.2384580550776525
*
