! pbe def2-sv(p) def2/J RI DEFGRID1 loosescf d4 GCP(DFT/SV(P)) printgap
%output
    printlevel normal
end
* xyz 0 1
C -2.3549858775 0.1447893737 0.5124699783
C -1.2644726207 0.6253352236 -0.442976865
C 0.0118692096 -0.1518752041 -0.2140299111
O 0.1093851092 -1.3491235932 -0.2598121072
O 1.0308714001 0.6757097968 0.0504046733
C 2.3089783721 0.1019609898 0.2951314703
H -2.489656037 -0.9287168487 0.407975007
H -2.0816120314 0.3605169571 1.5427125829
H -3.2955448265 0.6423501246 0.2910164339
H -1.0622404259 1.6876920536 -0.3104702488
H -1.58005423 0.4466998469 -1.4729511302
H 2.5608496846 0.2394264754 1.3475193213
H 3.0335652813 0.6216217727 -0.33053164
H 2.2896263313 -0.9624668735 0.0542471714
*
