! pbe def2-sv(p) def2/J RI DEFGRID1 loosescf d4 GCP(DFT/SV(P)) printgap
%output
    printlevel normal
end
* xyz 0 1
C -2.6052798646 1.401890983 0.0003460629
C -1.6074599913 0.2921695743 -0.0004429191
C -1.8700438687 -1.046407598 -0.0003054625
N -0.7004417992 -1.7611995654 0.000121766
C 0.3488513978 -0.8907326586 0.0002467911
C -0.184051875 0.4222346893 6.29639e-05
C 0.6903690842 1.5094528858 9.011e-06
C 2.0452694737 1.2691405701 -0.0002003609
C 2.5545424479 -0.0326799703 -0.0001295658
C 1.7177111075 -1.1271346116 0.0001379469
H -3.2656564675 1.3284369461 -0.8632669159
H -3.2221979771 1.3665658581 0.8981316467
H -2.0997389038 2.3628081754 -0.0323786727
H -2.8177703572 -1.5509704232 -0.0009783603
H -0.6300076872 -2.7640016769 0.0002764829
H 0.3110181587 2.5208380874 0.0002184906
H 2.7364384445 2.0995484581 -0.0003358205
H 3.6246929299 -0.1793018215 -0.0003036848
H 2.1089250276 -2.1344044922 0.000228144
*
