! r2scan-3c def2/J RI DEFGRID2 scfconv6 printgap
%output
    printlevel normal
end
* xyz 0 1
C -0.7606908843 -5.4874e-06 1.962e-06
C 0.7606964825 3.6763e-06 -3.9586e-06
H -1.1436320195 0.6382112455 0.7932737656
H -1.1436639001 0.3679506869 -0.9493312768
H -1.143578086 -1.0061683936 0.156058697
H 1.1436100243 -0.3684887606 0.9491492909
H 1.143566799 1.0062593423 -0.1554106658
H 1.1436304691 -0.6377425371 -0.7937160177
*
