! pbe def2-sv(p) def2/J RI DEFGRID1 loosescf d4 GCP(DFT/SV(P)) printgap
%output
    printlevel normal
end
* xyz 0 1
C 0.834758706 1.2984377398 -0.9913164833
C 1.4403041398 0.3023883644 -0.00309387
H 2.4471246939 0.0418817786 -0.3546641765
C 0.6120408286 -0.999535531 0.0289114307
H 0.5543809682 -1.3544398461 1.0740525559
C -0.8329626551 -0.7657464498 -0.46502971
H -0.8659209115 -0.8909358146 -1.5529217584
C -1.2828561195 0.6602200979 -0.0912520418
H -2.3201861861 0.8161782415 -0.4175339607
O -0.5125348996 1.6403760713 -0.7150717336
O -1.2946037227 0.7905957404 1.3039801328
O -1.7104512793 -1.7119227498 0.0869166065
O 1.2811335034 -1.9520273445 -0.7594651665
O 1.5027625744 0.9192729912 1.2686331657
H 0.9111979314 0.8694708866 -1.9990736765
H 1.3888064261 2.2386531212 -0.9549525215
H -0.4032446962 1.0702669141 1.5782872293
H -1.9876297211 -1.3769505687 0.9519811262
H 0.7008366906 -2.7160751971 -0.8633864425
H 2.0299954894 0.3737555992 1.8624804978
*
