! r2scan-3c def2/J RI DEFGRID2 scfconv6 printgap
%output
    printlevel normal
end
* xyz 0 1
C 0.882305187 1.3437836353 -0.6977778795
C 1.5911193801 0.1682311443 -0.0214915981
H 2.6200975149 0.0644746991 -0.3918447392
C 0.7902614037 -1.1179030339 -0.3398295644
H 1.2116256803 -1.954186717 0.2400882586
C -0.6717264178 -0.9307397665 0.092164021
H -1.2766780679 -1.7407020739 -0.3294471928
C -1.249433248 0.4090025445 -0.4325327989
H -1.3643074406 0.3616086765 -1.5254435368
O -0.3842003048 1.4935968925 -0.1057643914
O -2.4808862464 0.6490515499 0.1210174123
O -0.8187061188 -0.9951235612 1.489496463
O 0.8034738688 -1.398653602 -1.7169764096
O 1.6381600302 0.379482365 1.3748075026
H 0.7952009902 1.1626382425 -1.7767032857
H 1.4181673846 2.2795096101 -0.5217328038
H -2.4366056652 0.3851385336 1.0547634954
H -0.0354274028 -0.5877205547 1.8926933638
H 1.696620798 -1.6440246669 -1.9834423489
H 1.0906351007 1.1566736183 1.5635276674
*
