! wb97x-v def2-tzvp def2/J RIJCOSX DEFGRID2 scfconv7 GCP(DFT/TZ) printgap
%output
    printlevel normal
end
* xyz 0 1
C -0.7339415601545969 -1.2033375825590114 0.22448647737481736
C 0.7255159588036908 -1.1760605406159934 -0.21663477505533693
O 1.3825014782993232 0.00037769199004807216 0.25674830339973914
C 0.7249198304535327 1.176483820714159 -0.21663393750509685
C -0.734563925754763 1.2030177864145497 0.2244547952233757
N -1.472751807229713 -0.0003569862793406434 -0.1871433087048159
H -0.7759233756208617 -1.2666065509362856 1.3202182227211825
H -1.2362533404264537 -2.0913594946846157 -0.17866370217722566
H 1.284901774258556 -2.0246607493839424 0.19200626968603937
H 0.7862021586417474 -1.2166967210622448 -1.3202433397091102
H 1.2838609100453495 2.0253648278576244 0.19203344700361896
H 0.7856123768929503 1.2171671576074108 -1.3202397270725552
H -0.7766073071281624 1.2663129263041206 1.3201821680277999
H -1.237320531628513 2.0907640416060973 -0.17874754450571206
H -1.5491598713713877 -0.0003908135153399938 -1.201693101618374
*
