! wb97x-v def2-tzvp def2/J RIJCOSX DEFGRID2 scfconv7 GCP(DFT/TZ) printgap
%output
    printlevel normal
end
* xyz 0 1
C 1.2507579000822766 -0.2866406326453405 0.003690229561328898
C 0.006720592473289284 0.573909732281829 -0.04968126916052691
O -1.1281946705111676 -0.29667575552196673 0.044591657910129534
H 1.2553872526238259 -1.000894629625154 -0.8243574134102295
H 2.148635437905249 0.33473507804670316 -0.06576959288157104
H 1.2859330154076658 -0.8475261263967013 0.9417992699557867
H -0.0194622579877598 1.1431677749116242 -0.9922068893921386
H 0.010435648590518517 1.2965436464865119 0.7815189942470308
H -1.9243839100452151 0.24301834059985247 0.011093720140780179
*
