! wb97x-v def2-tzvp def2/J RIJCOSX DEFGRID2 scfconv7 GCP(DFT/TZ) printgap
%output
    printlevel normal
end
* xyz 0 1
C 1.4638127464121686 -0.35039893023518287 0.49220710065379647
C 0.6767381258653872 0.4698456861425469 -0.523052310388476
C -0.8154378029777832 0.33831300722597607 -0.4436786863771444
C -1.4977626627765026 -0.41469667714210184 0.4151038579835709
H 1.2038669796949575 -0.06670231891149402 1.5169787685583616
H 2.5384676788532086 -0.19476352168640934 0.36292969542662196
H 1.2628990564801972 -1.4203128562773513 0.3774903204625878
H 0.9915474937211134 0.20195592796008938 -1.542053486631384
H 0.9336081059499444 1.5342058094412423 -0.4207042421506184
H -1.3699775312630742 0.9287998617346677 -1.1735459692932317
H -2.5821903649869795 -0.44438983807166016 0.3939823339890344
H -1.0056814447418252 -1.0261064434088827 1.165289262827611
*
