! wb97x-v def2-tzvp def2/J RIJCOSX DEFGRID2 scfconv7 GCP(DFT/TZ) printgap
%output
    printlevel normal
end
* xyz 0 1
C -2.262550131454287 0.28783581321381196 0.6360726906789088
C -1.3040301861070043 0.5178262262475758 -0.5402715830638519
C 0.010052427136343746 -0.172917374441285 -0.2763783907698245
O 0.1815511480796302 -1.3695328314804027 -0.30680791260159174
O 0.9842604213456687 0.7134377571749388 0.04575083121586943
C 2.258868877663125 0.11606869648350789 0.3672391422801903
H -3.232339265091741 0.7479730812007094 0.43040041746775903
H -2.413470333871325 -0.781776436506174 0.8014153689139104
H -1.864414380194346 0.727503207246626 1.5550680943674238
H -1.141160741233942 1.5853164951039915 -0.7056283323646771
H -1.7242277486005015 0.07868472388025323 -1.4501536537566515
H 2.6334982067234427 -0.4607828584107978 -0.48201231556657514
H 2.1605005044291232 -0.5453361068888698 1.2319084662410527
H 2.923467585088921 0.9499310402030267 0.5919993010035071
*
