! wb97x-v def2-tzvp def2/J RIJCOSX DEFGRID2 scfconv7 GCP(DFT/TZ) printgap
%output
    printlevel normal
end
* xyz 0 1
C -2.5706870122346683 0.6011677493168639 -0.0016327404232782598
C -1.223459351140608 -0.06810082378751658 0.00020237080706462105
C -1.1384834302200113 -1.4593071214252002 -0.0003564444111851445
C 0.1006942257306515 -2.091818607551497 0.001334151117156825
C 1.264221670739602 -1.3418000322618742 0.0015139337446673012
C 1.1868810258877236 0.050802563462624066 0.00042250258659919115
C -0.050758459012001725 0.7112650742660038 0.0023697258834875197
C -0.16238485103088451 2.213351813274728 0.002314550793951866
O 2.3891769106650984 0.7091523154487056 -0.00292564063303118
H -2.7100455792172977 1.2313551294441627 0.8845659889569186
H -2.6985169902500097 1.2496969361562134 -0.8761712218373517
H -3.3714964426007463 -0.14107258221187635 -0.014167431896483808
H -2.0501694160292643 -2.0483974083613075 -0.002130291752052003
H 0.15939355518860976 -3.175483208560444 0.001293852735087545
H 2.2434397472665624 -1.8072671219852252 0.0010069060337772543
H -0.7434764151755564 2.566370112208447 0.8610485939753189
H 0.7981888626076684 2.7346849564422695 0.048778316107059114
H -0.6687969828523781 2.5741990613753885 -0.8999641108134974
H 2.2344036029127006 1.6590464082150695 -0.013580200451069386
*
