! wb97x-v def2-tzvp def2/J RIJCOSX DEFGRID2 scfconv7 GCP(DFT/TZ) printgap
%output
    printlevel normal
end
* xyz 0 1
C -1.880701024066523 -0.5295745235267549 -0.2976908576420505
C -0.9893737642164558 0.37789972750248496 0.5390837968791813
S 0.6965459090307341 0.6304735454218963 -0.14720791067977326
C 1.4059332375700706 -1.0313431180888881 0.13085557849904342
H -2.8787692409602097 -0.5969684211846735 0.15045558808787024
H -1.982815438715402 -0.14366787396590858 -1.3152968804619982
H -1.477005993705683 -1.544108825762841 -0.357776031240744
H -0.8922165311388855 0.004549493290842404 1.5653574599709603
H -1.4153893349368523 1.3849048115451394 0.601049744301229
H 0.9130708972483093 -1.7922149843948492 -0.47969041940365525
H 1.3482031816126236 -1.3049562594053064 1.1886857048745072
H 2.4574775556819684 -0.9792938854936674 -0.16105977875092473
*
