! wb97x-v def2-tzvp def2/J RIJCOSX DEFGRID2 scfconv7 GCP(DFT/TZ) printgap
%output
    printlevel normal
end
* xyz 0 1
C -0.4780542527755038 0.5848790262275524 -0.0001837424140685347
C 0.47810609332978854 -0.5849562198194888 -0.0001262745505527622
Cl 2.1781769164622355 0.06888514214573947 -0.00012156626264789748
Cl -2.1781218339717 -0.06896588390442317 -0.0001009078590389925
H -0.36472691843617167 1.1995982367817877 -0.8943149629668835
H -0.36468383924990583 1.1997174113011988 0.8938586134339686
H 0.364741942521936 -1.1997043021888114 0.8939807398716735
H 0.36477203128562724 -1.1997664173370801 -0.8941922268338242
*
