! wb97x-v def2-tzvp def2/J RIJCOSX DEFGRID2 scfconv7 GCP(DFT/TZ) printgap
%output
    printlevel normal
end
* xyz 0 1
C -2.724705793303896 -0.9186326743612565 -0.1642524512153054
C -2.3118271540383506 0.43929338772811805 0.3916953672808015
C -1.1273022177856908 1.0675588907545221 -0.3111819144543298
I 0.7390650003545488 -0.05188670445931143 -0.0044181473319035835
H -1.9234057010433883 -1.65200625953232 -0.03605218978626032
H -3.614631313540622 -1.294659422084853 0.34761295838392087
H -2.9517851285856302 -0.8505572638135702 -1.2334397496304321
H -2.1089966815118206 0.36815411644353424 1.4657970740476993
H -3.1451055856815295 1.1497005406827219 0.278402339067747
H -0.8956866261167445 2.0640486677113015 0.06238878219675703
H -1.2499949942798865 1.0940719397314642 -1.3945030691092961
*
