! pbe def2-sv(p) def2/J RI DEFGRID1 loosescf d4 GCP(DFT/SV(P)) printgap
%output
    printlevel normal
end
* xyz 0 1
C 1.4041886237 0.5189820819 1.51436e-05
O 0.5833546932 -0.6477437115 4.90831e-05
C -0.7262254966 -0.4779708358 -0.0001566768
O -1.3212185876 0.5582137454 7.20624e-05
H 0.7784650357 1.4128284326 0.0190910534
H 2.0165923106 0.506228576 -0.9013318582
H 2.042969312 0.4852682649 0.8820957777
H -1.2043680885 -1.4718521488 -9.14044e-05
*
