! pbe def2-sv(p) def2/J RI DEFGRID1 loosescf d4 GCP(DFT/SV(P)) printgap
%output
    printlevel normal
end
* xyz 0 1
C 1.7478764487 0.1971602446 0.0026141264
O 0.4826721004 -0.4388355079 -0.0061449579
C -0.6029034863 0.3253549128 0.0069255904
O -1.7114506059 -0.1075157447 -0.0037615727
H 2.4877563924 -0.5998244255 0.0207074041
H 1.8644309172 0.8261037573 0.8888483637
H 1.8857972908 0.8044691483 -0.8955858185
H -0.3768390807 1.4152904873 0.0296028323
*
