! r2scan-3c def2/J RI DEFGRID2 scfconv6 printgap
%output
    printlevel normal
end
* xyz 0 1
C 1.3778156357 0.000708869 -0.002018733
N -0.0906712308 -2.67882e-05 -0.0053176039
O -0.6404426704 -1.0727723269 0.00155736
O -0.6417537441 1.0720929403 0.0015710494
H 1.7148859925 0.0017405575 1.0349390464
H 1.7392355932 0.9008159786 -0.4941687368
H 1.7402771076 -0.8998471747 -0.4924754276
*
