! pbe def2-sv(p) def2/J RI DEFGRID1 loosescf d4 GCP(DFT/SV(P)) printgap
%output
    printlevel normal
end
* xyz 0 1
C 0.6209642456 1.6952233426 -0.0016793634
C 1.4063590115 0.4052884283 -0.2525813396
H 1.6106748163 0.3022022952 -1.3310038126
C 0.5462662914 -0.7890698524 0.1817956405
H 0.3748376132 -0.7265189997 1.268585767
C -0.8073132642 -0.7358856063 -0.535215052
H -0.6472941642 -0.886302252 -1.611394593
C -1.4622145133 0.6455260259 -0.2986610479
H -2.3484419587 0.757042881 -0.9488281461
O -0.6179454635 1.6795646298 -0.6866851402
O -1.8448687994 0.7637132956 1.040976327
O -1.6129001391 -1.7627835744 0.0116537664
O 1.2488119815 -1.9708738673 -0.1236101386
O 2.6044603021 0.4537597288 0.4719714919
H 1.1665993783 2.5541245969 -0.3901214303
H 0.4660089547 1.8205882348 1.0756577685
H -1.9356908576 -0.1280367689 1.4071676088
H -2.4373537952 -1.8216758435 -0.4839563843
H 0.6596487504 -2.7154178721 0.0448757192
H 2.9985958424 -0.4269709837 0.4308603263
*
