! pbe def2-sv(p) def2/J RI DEFGRID1 loosescf d4 GCP(DFT/SV(P)) printgap
%output
    printlevel normal
end
* xyz 0 1
C 0.8459009023 1.4044814584 -0.6084377356
C 1.5940097864 0.1854099439 -0.0457012758
H 2.5800862189 0.1047062831 -0.5149826349
C 0.7899472495 -1.1038037873 -0.3418093144
H 1.242506423 -1.9259231666 0.2285283574
C -0.6736494851 -0.9230191761 0.1172257551
H -1.2751099091 -1.763370248 -0.2609750063
C -1.2677501347 0.3897248588 -0.4456774606
H -1.3411807399 0.3183671943 -1.5454418472
O -0.4590590414 1.4867968066 -0.0854697785
O -2.5422688646 0.6067208954 0.0175952124
O -0.7773848801 -0.8267858788 1.5229857846
O 0.8708638758 -1.5051151277 -1.6833103354
O 1.8175460639 0.3283928602 1.3296267063
H 0.8194272344 1.3678120131 -1.708753915
H 1.3466837076 2.3215035729 -0.2935419536
H -2.4983451919 0.6417128473 0.9834231219
H -0.4234611142 -1.6290521871 1.9220702137
H 0.5437657642 -0.8034912675 -2.2573636553
H 0.9587166991 0.5014791932 1.7456663493
*
