! pbe def2-sv(p) def2/J RI DEFGRID1 loosescf d4 GCP(DFT/SV(P)) printgap
%output
    printlevel normal
end
* xyz 0 1
C 2.3935414333 4.53209e-05 0.0410479996
N 0.9852669373 3.15933e-05 -0.2846996333
C 0.316123241 1.1860151156 0.2183415466
C -1.1380369816 1.1882974854 -0.2432247007
N -1.7905642551 -5.52509e-05 0.2732531537
C -1.1379252029 -1.1883389526 -0.2432437186
C 0.3162260045 -1.1859958921 0.2183451723
H 2.8587697279 -0.8847400401 -0.3916676221
H 2.581123427 -0.0001810821 1.1270439564
H 2.858645198 0.8851007303 -0.3912493156
H 0.3406143124 1.2243913542 1.3220464675
H 0.8279158614 2.0681147883 -0.1740103184
H -1.6495273106 2.0702350498 0.1488967126
H -1.1546330241 1.2272424836 -1.3463876241
H -2.7735144335 -8.53985e-05 0.017952851
H -1.6493310658 -2.0703284994 0.148864921
H -1.1545103629 -1.2272800356 -1.3464069225
H 0.3407021285 -1.2243565979 1.322055626
H 0.8281029145 -2.0680589918 -0.1739897234
*
