! pbe def2-sv(p) def2/J RI DEFGRID1 loosescf d4 GCP(DFT/SV(P)) printgap
%output
    printlevel normal
end
* xyz 0 1
C -2.2222180565 0.3385221542 0.6578654808
C -1.3112681443 0.4785859505 -0.563069856
C 0.0046840088 -0.2093776328 -0.2850040567
O 0.1946256253 -1.395244321 -0.3351172884
O 0.9490102677 0.6762201842 0.0583784623
C 2.2243863115 0.1417101459 0.3851776223
H -2.3713060029 -0.7122919812 0.8940056993
H -1.7799026534 0.8309685941 1.5207939866
H -3.1890753733 0.79265505 0.4565194537
H -1.1262596702 1.5298792441 -0.7807349309
H -1.7764238964 -0.0024831255 -1.4240344733
H 2.6076174068 -0.4561013903 -0.4440177652
H 2.1533337289 -0.4927119744 1.2708679105
H 2.8724828112 0.9928949019 0.576131055
*
