! pbe def2-sv(p) def2/J RI DEFGRID1 loosescf d4 GCP(DFT/SV(P)) printgap
%output
    printlevel normal
end
* xyz 0 1
C 0.6154900876 1.7018045104 -0.0105117325
C 1.3975075906 0.4037869747 -0.2754164702
H 1.5742683348 0.3090314879 -1.3543932778
C 0.5422608079 -0.7810842435 0.2127894562
H 0.3442979922 -0.6666140965 1.2872479067
C -0.8011872961 -0.7437087101 -0.5418343923
H -0.6204319793 -0.8492949598 -1.6177942077
C -1.4658242914 0.6258757425 -0.2846947742
H -2.361936557 0.7239387272 -0.9161376783
O -0.6452696845 1.69546342 -0.6564896166
O -1.8091047868 0.6631295204 1.0739187506
O -1.6546992199 -1.7903049053 -0.1896435925
O 1.2031760598 -2.0095459377 0.1001035052
O 2.6673889923 0.4316978569 0.3180295358
H 1.1513748566 2.5604941085 -0.415483672
H 0.4897241874 1.8330853432 1.0735098563
H -2.2515230393 1.4990037971 1.2609923576
H -1.8849647121 -1.6867530742 0.7427471435
H 1.316356915 -2.2302909939 -0.8313661627
H 2.5939220276 0.1533866548 1.2385828199
*
