! r2scan-3c def2/J RI DEFGRID2 scfconv6 printgap
%output
    printlevel normal
end
* xyz 0 1
C 2.7759694587 -1.3886717096 -0.0001440571
C 1.577708346 -0.698374138 -0.000161187
C 1.577713827 0.698360466 -9.3074e-05
C 2.7759627882 1.388673225 3.56081e-05
C 3.9802822772 0.695738704 7.56016e-05
C 3.9802750719 -0.6957259958 -3.06508e-05
Cl 5.4574611375 -1.5698854236 -1.90595e-05
Cl 5.45745835 1.5698853419 0.0002556748
O 0.4123705426 1.4252942898 -0.0001498456
C -0.7436827481 0.6983757839 -0.0001275629
C -0.7436841175 -0.6983804012 -0.0001328802
C -1.9508687774 -1.390500514 -3.06434e-05
C -3.1620975277 -0.695764894 5.49768e-05
C -3.1620941979 0.6957655015 1.00195e-05
C -1.9508674433 1.3905026865 -7.93064e-05
Cl -1.9226137849 3.1022324555 -0.0001360051
Cl -4.6387064647 1.5584865278 8.11274e-05
Cl -4.6387022011 -1.5584813898 0.0002167487
Cl -1.9226217817 -3.1022339245 -9.6678e-06
O 0.4123715401 -1.4253010865 -0.0002366298
H 2.7607962416 -2.4658870225 -0.0002201102
H 2.7607660492 2.4658840505 0.0001043409
*
