! wb97x-v def2-tzvp def2/J RIJCOSX DEFGRID2 scfconv7 GCP(DFT/TZ) printgap
%output
    printlevel normal
end
* xyz 0 1
C 1.85208173047311 -1.4751081287280579 -0.0005591386827728862
C 0.5632886655357642 -0.7004758205824733 -3.047251446875606e-05
C -0.6533727845677254 -1.3847270179333542 -8.43292525055141e-06
C -1.8473386735838804 -0.678317346953309 0.00014139944096145857
N -1.9071496410592108 0.6567580539458847 0.00022001048539204218
C -0.7430315540663752 1.3062327080452147 0.0002583822744958375
C 0.5182048956259158 0.7012530867757181 0.0001947803311873164
C 1.75569885797963 1.5548969822903222 7.900898982588148e-05
H 1.9080290274653426 -2.1252473552156252 0.8789945238097936
H 1.909247439916931 -2.12182907940755 -0.8825672873402837
H 2.7301262691929984 -0.8287536366829099 0.00119643091208375
H -0.6658624477164115 -2.4714779533192983 -0.00012277592606906978
H -2.7993747261645585 -1.2065999422248261 -0.00017900101863599322
H -0.8047320772761561 2.3953174323566575 0.0007316849616422665
H 2.374577251520599 1.36920986429499 -0.8845224463346246
H 1.488331952747396 2.614326813067887 0.0032726876602140807
H 2.378057622936005 1.364784228190624 0.8812460779130048
*
