! pbe def2-sv(p) def2/J RI DEFGRID1 loosescf d4 GCP(DFT/SV(P)) printgap
%output
    printlevel normal
end
* xyz 0 1
C -2.4393927426 1.159e-05 0.0066050476
C -0.9404746981 -7.63837e-05 -0.0090846172
C -0.2312574798 -1.194602136 -0.0052242958
C 1.1522413423 -1.196299594 0.0015300449
C 1.8485269955 2.79339e-05 0.0049428168
C 1.1521225631 1.1963797376 0.0016500146
C -0.23130129 1.19454081 -0.0052343408
H -2.833199986 -0.8865537413 -0.4852789546
H -2.8004838011 0.0024764306 1.0358801516
H -2.8330961706 0.884234921 -0.4894977754
H -0.7692030722 -2.1323600051 -0.0087636589
H 1.6885327525 -2.1343381397 0.0030184112
H 2.9286401246 0.0002246822 0.0084958231
H 1.6885284964 2.134339419 0.0026042283
H -0.7694816105 2.1321914381 -0.0090746279
*
