! wb97x-v def2-tzvp def2/J RIJCOSX DEFGRID2 scfconv7 GCP(DFT/TZ) printgap
%output
    printlevel normal
end
* xyz 0 1
C 2.1835654122059314 -1.2008129400612082 -0.06407306791842948
C 1.4178031680590117 0.1044424756193987 0.040894559477335536
O 1.981661255130846 1.1900137341904709 0.14282528894827579
N 0.060149091163822506 0.0047419532472828575 0.02205127767984067
C -0.7297237009771783 -1.2273466219857792 -0.09643550668538761
C -2.15023661042662 -0.757759586364927 0.2321165170302022
C -2.167370938785665 0.6789667734200213 -0.3016730076086267
C -0.7839556983889043 1.2066856327589404 0.08362746607181662
H 3.2424997219018934 -0.9649635489384275 -0.16319110593915642
H 1.8582683881519246 -1.7988500868310988 -0.9215055447776057
H 2.0380254974708225 -1.8071097304036712 0.8366284376643721
H -0.6789378192457984 -1.633700032821156 -1.118465900716695
H -0.37466857853717095 -2.000830738529311 0.5927572956649362
H -2.9146665081875835 -1.3987765460044062 -0.21420157603651294
H -2.297256136840349 -0.7550358577612845 1.3181172186740175
H -2.275389396407388 0.6710662512086597 -1.3923683151996138
H -2.9768457263738024 1.2829257663601972 0.1152231497588454
H -0.397937395370127 1.9750335061506301 -0.5919723508481042
H -0.775270962057303 1.6259600166078931 1.0992657536756205
*
