! wb97x-v def2-tzvp def2/J RIJCOSX DEFGRID2 scfconv7 GCP(DFT/TZ) printgap
%output
    printlevel normal
end
* xyz 0 1
C -1.7137226571622328 -0.378267459915266 8.268602544834056e-06
C -0.6204805528993131 0.6654748546280838 9.956913526525673e-06
Cl 1.0320255690047782 -0.11741062605219374 -8.024476481916747e-05
H -1.6526461905216832 -1.0129683579665358 0.8870553889702832
H -2.688310093958772 0.12346038543084986 0.00010585522431804054
H -1.6527599542343576 -1.0128482262024872 -0.8871329300536952
H -0.6541638932338226 1.2965761305554215 0.8902630927783106
H -0.6542280138645256 1.2966454026924772 -0.890189951066849
*
