! pbe def2-sv(p) def2/J RI DEFGRID1 loosescf d4 GCP(DFT/SV(P)) printgap
%output
    printlevel normal
end
* xyz 0 1
C 1.4596695068 -0.3504519347 0.4918580067
C 0.6770930059 0.4707307532 -0.5239595052
C -0.8123088225 0.3335254133 -0.4381697935
C -1.4893262428 -0.413110275 0.4133916972
H 1.1952753304 -0.0592582791 1.5056213939
H 2.5271840316 -0.1904428418 0.3570681131
H 1.2541902164 -1.4109944182 0.3675943847
H 0.9859757798 0.1877114106 -1.5358281739
H 0.9273808442 1.5302952342 -0.4053597606
H -1.3485879382 0.9264722615 -1.1700042129
H -2.565732513 -0.4470467835 0.3978680443
H -1.0109231459 -1.0216806409 1.1608661999
*
