! wb97x-v def2-tzvp def2/J RIJCOSX DEFGRID2 scfconv7 GCP(DFT/TZ) printgap
%output
    printlevel normal
end
* xyz 0 1
C -1.9523123979703072 -0.23335449772432698 -0.5381521260548107
C -1.193892888603343 -0.06159908353961514 0.7741602616224548
C 0.1243873002185711 0.6939558531598528 0.6308303215114826
S 1.3906478537581113 -0.15655863300134723 -0.41444843207019955
H -1.3529953460824862 -0.79094159004837 -1.2630094800867713
H -2.8906449500488973 -0.7728891426028095 -0.38106949222309433
H -2.1938495746880378 0.7404222550047213 -0.9782316433498627
H -1.0013804694948798 -1.0408704476191915 1.229352338861986
H -1.815021941063556 0.4949300820212331 1.4897677534094378
H -0.037892735596213256 1.6561156010399516 0.13238757062611878
H 0.5705589932500097 0.9034826116063882 1.607103940317316
H 1.5867203678603399 -1.1975906243433023 0.4143107610804591
*
