! r2scan-3c def2/J RI DEFGRID2 scfconv6 printgap
%output
    printlevel normal
end
* xyz 0 1
C -1.7030062156 0.4024484727 -0.0038529783
C -0.6169777317 -0.651455436 0.0880163519
S 1.048404692 0.1330388074 -0.0106970569
H -1.6366102737 0.9347093916 -0.9501300678
H -2.682212749 -0.0669033848 0.0679753252
H -1.6011805404 1.1233045961 0.8043276914
H -0.6903731953 -1.3645527531 -0.7295395379
H -0.6643205847 -1.1816889677 1.0395198137
H 1.5732118453 -0.7092815499 -0.8948565057
*
