! wb97x-v def2-tzvp def2/J RIJCOSX DEFGRID2 scfconv7 GCP(DFT/TZ) printgap
%output
    printlevel normal
end
* xyz 0 1
C -2.48574550329454 0.02551651834862992 0.3182944826917529
C -1.2329403894071134 0.7294673423542892 -0.1829233520442083
C 0.030525499767044058 -0.015446988820291583 0.17388655216084278
O 0.08569514922812761 -1.1017405389145276 0.700495426204569
O 1.1260572932240906 0.6987134372330219 -0.18486966590964152
C 2.386143414752107 0.0567355170427222 0.09944050220396003
H -2.464308130621415 -0.0793504490041281 1.4057974644104878
H -3.3779503762759164 0.5930389100639333 0.04118627354750878
H -2.5645065476926328 -0.9781083893077069 -0.10560765336932611
H -1.1497322253132 1.7469522840718499 0.21588622634155052
H -1.2466793132808518 0.8424822179404055 -1.274292384348829
H 2.461784119751028 -0.8915774511443296 -0.43956030404175467
H 2.4843208787588402 -0.13406036551758174 1.1715263787215422
H 3.152023750101399 0.7544774837871541 -0.2394059497448622
*
