! wb97x-v def2-tzvp def2/J RIJCOSX DEFGRID2 scfconv7 GCP(DFT/TZ) printgap
%output
    printlevel normal
end
* xyz 0 1
C 1.9421032945072187 4.219264143934244e-05 0.7088457087761648
N 1.1053965196770343 -1.4411590035779375e-06 -0.4873212031657448
C 0.2676345702904538 1.19992365650857 -0.6055284307768153
C -0.9331970909678016 1.2058845663948907 0.343462875901196
N -1.7324315652464528 -5.292790145755545e-05 0.09074972391234853
C -0.9331481318890527 -1.2059485474225917 0.3435050009070091
C 0.2676850531597304 -1.199966450269772 -0.6054840168034256
H 2.58815536714984 0.8851079704569585 0.6941782469292822
H 2.5881463041004387 -0.8850314875207791 0.6942504699205884
H 1.3974789508339918 8.3525338938604e-05 1.6699940176795354
H 0.8923083351250416 2.0847479261097654 -0.4340726640201417
H -0.10990176630542368 1.2455572557130408 -1.6362411407735884
H -0.5821587267580118 1.2712797300019665 1.3918918758922765
H -1.549113766104399 2.091759802108617 0.1467237519572344
H -2.5496802440637287 -5.948985922114183e-05 0.6900992318167286
H -0.5821086645705257 -1.2712949499459216 1.3919367371680076
H -1.5490276374686738 -2.091855777780026 0.14679240676803065
H 0.8923958796342438 -2.084757843748638 -0.4339944023262234
H -0.1098460639881768 -1.2456545597662383 -1.6361964981383073
*
