! pbe def2-sv(p) def2/J RI DEFGRID1 loosescf d4 GCP(DFT/SV(P)) printgap
%output
    printlevel normal
end
* xyz 0 1
C 0.5854039591 1.7062689736 -0.0643033305
C 1.3841541627 0.4119849256 -0.2675523759
H 1.5932652401 0.2722691691 -1.3405128499
C 0.5391794578 -0.7709549419 0.2191061782
H 0.3528568381 -0.6581861108 1.2972835038
C -0.7992249768 -0.7503720721 -0.5232892841
H -0.5936116533 -0.8135677596 -1.6060048436
C -1.4839283242 0.6000685982 -0.2582667516
H -2.3989597272 0.6663988949 -0.8626860204
O -0.6694175856 1.6566552045 -0.7144052469
O -1.7557307039 0.7080851575 1.1003281297
O -1.6418649248 -1.7916278217 -0.1293473218
O 1.1670219949 -2.0044362836 -0.0411822877
O 2.5864061941 0.4057095988 0.4716746921
H 1.1045158441 2.5634718888 -0.4995618178
H 0.452441085 1.8676089415 1.0141070814
H -2.3236969823 1.4722407592 1.2523408517
H -1.0853300527 -2.573813251 -0.0200587958
H 2.0655622049 -1.9425889447 0.3036892306
H 3.1225489141 1.1623368587 0.2122012786
*
