! wb97x-v def2-tzvp def2/J RIJCOSX DEFGRID2 scfconv7 GCP(DFT/TZ) printgap
%output
    printlevel normal
end
* xyz 0 1
C -0.7189191476058937 -1.828443204930586 -4.886103370541593e-05
C 0.6091294483651135 -1.4278621025609595 0.00028356399475092
C 0.9018730269970878 -0.056815243074944725 0.0004337025122682467
C -0.11850218558909766 0.8975819332886409 0.0003798366896346422
C -1.4439079509548234 0.4726108030563717 5.322811719906273e-05
C -1.746167008384448 -0.8905013903612268 -0.0001768252795092434
O -2.4026399697414584 1.4407809583428075 -5.562655229975857e-05
C 2.261214085980053 0.3728706444915923 0.0009169057288024818
N 3.3676256653897436 0.7143199554962728 -0.0018648969706529287
H -0.9623325390167937 -2.88545006109716 -0.00019090657750873692
H 1.414633218458686 -2.151760574782186 0.00043150133784727483
H 0.10828816747576192 1.9569562023685154 0.0005767888891602903
H -2.782808669748301 -1.2174363420752854 -0.00043463819680273003
H -3.27470333654369 1.0299029908209696 -0.0003069026816885919
*
