! pbe def2-sv(p) def2/J RI DEFGRID1 loosescf d4 GCP(DFT/SV(P)) printgap
%output
    printlevel normal
end
* xyz 0 1
C -0.9272408982 1.0440753071 5.32296e-05
C 0.4343039721 1.3062307611 0.000157416
C 1.3678365775 0.2810223418 0.000198754
C 0.9140903325 -1.0292096508 0.0002669267
C -0.4405308495 -1.3250723754 9.77191e-05
C -1.3483371976 -0.2770090378 -3.35759e-05
Cl -3.0336788281 -0.6232433352 -4.80459e-05
Cl 2.0565683851 -2.3155761346 -0.0001146128
Cl 0.9770669935 2.9388127006 -9.25309e-05
H -1.6428984746 1.8496875133 8.18479e-05
H 2.4234402212 0.497776813 4.15848e-05
H -0.780466512 -2.3476712632 2.88242e-05
*
