! pbe def2-sv(p) def2/J RI DEFGRID1 loosescf d4 GCP(DFT/SV(P)) printgap
%output
    printlevel normal
end
* xyz 0 1
C 3.4975554851 -5.7513e-06 -1.86269e-05
C 2.8127973854 -1.2015750257 -1.36886e-05
C 1.4174944707 -1.2260425824 1.885e-06
C 0.6764133853 -2.44500774 7.378e-06
C -0.6764159919 -2.445005025 9.8036e-06
C -1.4174977157 -1.2260398244 7.5066e-06
C -2.8128004816 -1.2015729434 5.0916e-06
C -3.4975568007 -2.6011e-06 -1.62695e-05
C -2.8127967898 1.2015728538 -2.11496e-05
C -1.4174987873 1.2260457757 -2.6137e-06
C -0.7076330522 2.0844e-06 4.2144e-06
C 0.7076307563 1.6268e-06 4.973e-06
C 1.4175003373 1.2260414598 6.5663e-06
C 2.812800745 1.2015708665 -3.275e-06
C 0.6764171572 2.4450096446 1.63737e-05
C -0.6764113505 2.4450086572 1.25594e-05
H 4.5781876578 -5.3107e-06 -1.40589e-05
H 3.3565128718 -2.1356733831 -1.99837e-05
H 1.2284649056 -3.3745853812 1.39745e-05
H -1.228462962 -3.3745845054 2.24013e-05
H -3.3565172491 -2.1356700453 2.4836e-06
H -4.5781922807 3.0357e-06 -2.17564e-05
H -3.3565199823 2.1356645 -2.24095e-05
H 3.3565310062 2.1356578905 5.2981e-06
H 1.2284701193 3.3745871538 1.61192e-05
H -1.2284592216 3.3745884608 9.2521e-06
*
