! pbe def2-sv(p) def2/J RI DEFGRID1 loosescf d4 GCP(DFT/SV(P)) printgap
%output
    printlevel normal
end
* xyz 0 1
C -0.6760950533 -1.1515288065 0.3570394151
C 0.6811198022 -1.1359158555 -0.3478679663
O 1.440631128 0.0070466583 0.0036426658
C 0.6510895635 1.1168750288 0.3905816018
C -0.6737177472 1.1675471605 -0.3611121372
N -1.4853304786 0.009326542 0.0047125998
H -0.5101477447 -1.1371455059 1.4405014345
H -1.2143241443 -2.0675915463 0.1109785121
H 1.2792219902 -2.0067882749 -0.0662018991
H 0.5296820173 -1.1575312263 -1.4391127167
H 0.4523681865 1.0831369331 1.4710186023
H 1.251982661 2.0034143373 0.1736772505
H -1.2222329067 2.0732312827 -0.0842952691
H -0.4590936312 1.2136160265 -1.4401404908
H -2.124740285 -0.2097924298 -0.7502179115
*
