! wb97x-v def2-tzvp def2/J RIJCOSX DEFGRID2 scfconv7 GCP(DFT/TZ) printgap
%output
    printlevel normal
end
* xyz 0 1
C -2.506600433222924 -0.05160204637869688 -0.09754994401096555
C -1.2292577582155833 0.75559859225419 0.08297249766915449
C 0.016024676296007418 -0.08862277624459258 -0.04932747819727924
O 0.036713557932830876 -1.2845048271622361 -0.21609234396045449
O 1.1217759492161645 0.6944318592215628 0.05030626740468457
C 2.4049341342291615 0.039998357447774406 -0.031197474344551866
H -2.547884481885319 -0.4989260224614176 -1.0936303183401272
H -2.558175216390759 -0.8655009783436154 0.6292014438402993
H -3.3830396842456256 0.5888456139047609 0.032517483117228206
H -1.19353145652379 1.2357303981501118 1.06858080375997
H -1.1588156767036448 1.5734023246147384 -0.6434335225471723
H 2.9682995332898723 0.5169681077355257 -0.8362521440572455
H 2.2792351155458848 -1.0254599647561393 -0.2301131089645478
H 2.920885608142961 0.19148270292852293 0.9201242690474797
*
