! wb97x-v def2-tzvp def2/J RIJCOSX DEFGRID2 scfconv7 GCP(DFT/TZ) printgap
%output
    printlevel normal
end
* xyz 0 1
C -1.2367458918973684 -0.00013657274152754445 8.33182513745766e-05
C -0.5670487171338646 -1.21324020834178 -0.06877635879712582
C 0.8323725948913875 -1.2160328480012763 -0.06902992921324308
C 1.5280879854751694 0.00017415626459641942 -7.57537826785973e-05
C 0.8321068691329639 1.2162299288024057 0.06894243195454379
C -0.567311075945965 1.2131096513695043 0.06882717028423839
Cl -1.4698304722549254 2.6814758881584835 0.15165705395653412
Cl 1.6873462606913663 2.7093234545016807 0.1534591373073027
Cl 3.251887424311226 0.0003441184781961211 -0.00015743142538600583
Cl 1.6879675372530456 -2.708913431433565 -0.15365073276400004
Cl -1.469217394739823 -2.6818258164971733 -0.15147314460800046
N -2.7210512333587524 -0.0002783527642200334 0.00023377503829713484
O -3.2589614391915314 0.059440998125512096 -1.089245159624389
O -3.2587719741357613 -0.06023609249954261 1.0897721398116416
*
