! wb97x-v def2-tzvp def2/J RIJCOSX DEFGRID2 scfconv7 GCP(DFT/TZ) printgap
%output
    printlevel normal
end
* xyz 0 1
C -2.5096854503276846 0.7516000011853021 -2.3862372400167316e-05
C -1.2250755219631024 -0.024284592417116436 -3.411095408567897e-06
C -1.195037801885259 -1.416942829677932 4.427518568582502e-06
C 0.009424472259002723 -2.11413691497557 1.4767776856150991e-05
C 1.208358938910404 -1.4119436239686067 5.185074529054376e-07
C 1.2258995841646623 -0.016790269755921877 -8.656380932468118e-06
C -0.0017080575169737906 0.6568880306571769 8.486782499297093e-06
O -0.0720739626386403 2.028440203763153 2.81745124770929e-05
C 2.5174547706076766 0.7546274925201504 -2.182795058199587e-05
H -2.5775680722773604 1.4028250136696911 -0.8779259180223329
H -3.3681383288494895 0.07613209369133561 -7.250703833964525e-05
H -2.577629978613376 1.4027785033910767 0.8779078836516001
H -2.1362682275949623 -1.9596346816674899 2.5529931533497577e-06
H 0.012777145395156276 -3.198783254421271 2.4560881873163147e-05
H 2.1532032004152577 -1.9483742985197812 -9.083824565234906e-06
H 0.820123881251472 2.3915858568923074 0.00011515195119995507
H 2.6158472613579873 1.3939705403376699 -0.8879583133018429
H 2.616140705299053 1.3935063765446667 0.8882158058106646
H 3.370333762266681 0.0728269366497316 -0.00035118074978151637
*
