! wb97x-v def2-tzvp def2/J RIJCOSX DEFGRID2 scfconv7 GCP(DFT/TZ) printgap
%output
    printlevel normal
end
* xyz 0 1
C -2.4184340156800728 -0.05597447520222186 2.179077688309123e-05
C -1.86147435626086 -1.33284568884982 7.629539712008257e-05
C -0.47900800992726744 -1.4808559576772282 8.494404899604709e-05
C 0.32750557603415087 -0.35182475906701277 3.9157841775655424e-05
C -0.2175747788804995 0.9370954451215471 -1.315877575327247e-05
C -1.6066303957676191 1.0692454320880806 -1.9501937933504232e-05
O 0.533473599691834 2.0658043694564663 -5.452187209140603e-05
Cl 2.0804652121676277 -0.5196220118981486 5.544414144383812e-05
H -3.496199382874633 0.06692523636180335 1.3451746921179604e-05
H -2.495071325420998 -2.212428017351143 0.000111271945583679
H -0.02111886308255975 -2.4634003353265204 0.00013019336295114924
H -2.0237195132631425 2.0702772023102867 -5.623845814919474e-05
H 1.469493079689415 1.818861420332004 -3.3294805798780345e-05
*
