! pbe def2-sv(p) def2/J RI DEFGRID1 loosescf d4 GCP(DFT/SV(P)) printgap
%output
    printlevel normal
end
* xyz 0 1
C 0.838337439 1.2686987539 -1.0255824382
C 1.4486093088 0.3081635456 -0.0048102277
H 2.4746666087 0.0589219651 -0.3077376694
C 0.6414137691 -0.9994380418 0.0220767379
H 0.6243786522 -1.3625184081 1.0624503065
C -0.8172995692 -0.7740601274 -0.4452169825
H -0.8684379372 -0.923255847 -1.5296106765
C -1.2783557678 0.6529909161 -0.0918340998
H -2.305213033 0.8103916721 -0.4473049865
O -0.4879159255 1.6414280625 -0.6938739471
O -1.3431263319 0.789950483 1.2969279885
O -1.683041377 -1.7098581861 0.1401364564
O 1.3000633624 -1.9248537445 -0.8057438828
O 1.4355890211 0.8545842668 1.3003324067
H 0.8690098425 0.7925310341 -2.0143957673
H 1.3982414816 2.207426796 -1.0697256744
H -0.4318723706 0.8735599993 1.6342472093
H -1.9494193094 -1.354933052 1.0015375319
H 0.7613630316 -2.724368476 -0.8452366115
H 1.8608687448 1.719968477 1.283195211
*
