! r2scan-3c def2/J RI DEFGRID2 scfconv6 printgap
%output
    printlevel normal
end
* xyz 0 1
C -2.5911419301 -0.6934732528 -0.0001523884
C -2.5912560652 0.6930416126 -7.19996e-05
C -1.4006107116 1.4128914505 0.0001515955
C -0.2200916931 0.6992825691 0.0002339032
C -0.2199568668 -0.699319237 0.0002076239
C -1.4003721836 -1.4131376538 -1.62923e-05
C 1.1896851547 -1.1644597814 4.10397e-05
O 1.6350340937 -2.2806949042 -3.06753e-05
N 1.9445969295 0.0002067333 -4.07372e-05
C 1.1894063894 1.164669071 3.29117e-05
O 1.6344194009 2.2809245726 -0.000210061
H -3.5315040553 -1.223998109 -0.0006862957
H -3.5315739242 1.2236055663 5.47563e-05
H -1.3928938617 2.4916223078 0.0003143569
H -1.3921807188 -2.4918403404 -0.0004845066
H 2.9544751502 0.0001125213 0.0001079848
*
