! r2scan-3c def2/J RI DEFGRID2 scfconv6 printgap
%output
    printlevel normal
end
* xyz 0 1
C 4.69684e-05 1.8043970987 -1.32509e-05
C 2.66957e-05 0.4838983669 1.47273e-05
Cl 1.4412475219 -0.4546408995 -1.6986e-06
Cl -1.4412766078 -0.454603532 -7.432e-07
H -0.9215105531 2.3567864574 7.8731e-06
H 0.9216558076 2.356702971 6.04242e-05
*
