! wb97x-v def2-tzvp def2/J RIJCOSX DEFGRID2 scfconv7 GCP(DFT/TZ) printgap
%output
    printlevel normal
end
* xyz 0 1
C -1.9532397575142226 1.1653997837136252 0.33130472752560874
C -1.489471233289209 -0.1510164527445957 -0.2826233841427932
C -0.010006435542636513 -0.4522110561611435 -0.20545190231327745
O 0.4802148625246074 -1.528447703863772 -0.45855956536527664
O 0.7174505956414615 0.6298657052210515 0.16019900455509997
C 2.141939223060627 0.40528258429499686 0.22704041957096532
H -1.492282595536203 2.021318819853593 -0.16627790232801237
H -3.0389580658539392 1.2589724657729897 0.23883618205959556
H -1.696128834850465 1.2190497453971563 1.3923188391872379
H -1.7463250102961312 -0.19462448333519516 -1.3489597183253252
H -1.9951819568181814 -1.0081754102710143 0.17394818117398447
H 2.3683688868736437 -0.3926599030820825 0.9387137588437904
H 2.5698070760267866 1.351938358718301 0.5568252102985928
H 2.529288113887821 0.12655386276148353 -0.7564507170569204
*
