! pbe def2-sv(p) def2/J RI DEFGRID1 loosescf d4 GCP(DFT/SV(P)) printgap
%output
    printlevel normal
end
* xyz 0 1
C -2.2411323445 0.3088565435 0.6414518869
C -1.2995218132 0.5062848599 -0.5475784911
C 0.0045885016 -0.2074789999 -0.277353833
O 0.1631701385 -1.3980982094 -0.3273275443
O 0.9631705205 0.6663215774 0.053863099
C 2.2500983476 0.1552658356 0.3778011757
H -3.2014572564 0.7763339798 0.439439356
H -2.3980428692 -0.7520365619 0.8202787787
H -1.8193895496 0.7551208838 1.539114139
H -1.1019219995 1.5656146717 -0.7073960242
H -1.7472241943 0.0741848617 -1.4433153697
H 2.9762707692 0.6032030497 -0.3003987623
H 2.2542230068 -0.9311138812 0.2715256159
H 2.4827039169 0.4332053141 1.4060332026
*
