! wb97x-v def2-tzvp def2/J RIJCOSX DEFGRID2 scfconv7 GCP(DFT/TZ) printgap
%output
    printlevel normal
end
* xyz 0 1
C 2.3959033016389757 7.775085904281684e-05 0.06353611833466152
N 0.9896127056331654 4.016357902741699e-05 -0.3152427390746704
C 0.31566136106365217 1.1982048995223569 0.1886149615245578
C -1.1454055776687118 1.2002877052918632 -0.2378939255631159
N -1.7982837921212236 -6.727140292840122e-05 0.29159018064146297
C -1.1453234930703458 -1.2003587440213812 -0.2379364955157224
C 0.3157440936537211 -1.198189413809742 0.18856967918765344
H 2.890855985238784 -0.8867718667231532 -0.3470248293122593
H 2.54535512806669 2.388992770000601e-05 1.1617368923909193
H 2.890781933131029 0.8870140432211149 -0.3469268397862135
H 0.36821707804876214 1.2569020063407361 1.2955224211043614
H 0.8203827770759139 2.082049672558773 -0.22056557447294584
H -1.6414347492990313 2.0885401921096465 0.17018790316217552
H -1.1867330095399249 1.2571744503691826 -1.3424914296741965
H -2.7772417322349345 -9.572934693177956e-05 0.028884422407689316
H -1.6412896421742285 -2.088659554033663 0.1701166082708603
H -1.1866496806905014 -1.2572108423032482 -1.3425356342653725
H 0.36830579464874535 -1.256923215997453 1.2954750773584691
H 0.8205269744963649 -2.0819844355189874 -0.22064273872966833
*
