! pbe def2-sv(p) def2/J RI DEFGRID1 loosescf d4 GCP(DFT/SV(P)) printgap
%output
    printlevel normal
end
* xyz 0 1
C 1.2591484052 -0.2891564782 0.0037128473
C 0.0038185109 0.5674280288 -0.0492015334
O -1.1209804428 -0.2822031308 0.0434257746
H 1.2548589686 -0.9977007165 -0.8197898544
H 2.1429994297 0.3386056793 -0.0655526021
H 1.2845099698 -0.8455834748 0.9364245149
H -0.022553686 1.1333966052 -0.9922708139
H 0.0074564176 1.2871942796 0.7828686046
H -1.9234285873 0.2476566095 0.0110617636
*
