! pbe def2-sv(p) def2/J RI DEFGRID1 loosescf d4 GCP(DFT/SV(P)) printgap
%output
    printlevel normal
end
* xyz 0 1
C 0.7214510584 0.01317636 8.744e-07
O -0.6826917034 -0.0644383762 -4.03e-07
H 1.0991608461 0.5250038246 -0.8918759728
H 1.0880210845 -1.0116674201 0.0003099724
H 1.0991005592 0.5255476743 0.8915851579
H -1.0466664793 0.8269896139 -2.31798e-05
*
