! wb97x-v def2-tzvp def2/J RIJCOSX DEFGRID2 scfconv7 GCP(DFT/TZ) printgap
%output
    printlevel normal
end
* xyz 0 1
C -0.9829544116905278 0.7104914875761941 2.3780460657553026e-05
C -0.9831075294652318 -0.7102987053842394 -3.6303376825771136e-05
C 0.3300862731054466 -1.1243545913145794 5.2841879214538296e-05
N 1.1183706953012456 -0.00012665968984368654 0.00012657512005981837
C 0.33032743575807144 1.1242678750357324 0.00013253552998285478
H -1.8473822862850438 1.357130543304013 -3.3814926046237826e-05
H -1.847671899622843 -1.3567533365855595 -0.00014514044403315354
H 0.7624821064420138 -2.1133157377833807 2.574790498713769e-05
H 2.1228475365291466 -0.0002471542452464353 0.0004062307715854942
H 0.7629239977457007 2.1131408383290804 0.00020288942019950723
*
