! wb97x-v def2-tzvp def2/J RIJCOSX DEFGRID2 scfconv7 GCP(DFT/TZ) printgap
%output
    printlevel normal
end
* xyz 0 1
C -2.5072085593497095 0.03474047861511934 -0.01998416503000967
C -1.0806918506780758 -0.5103168271958681 0.04113003875715033
C -0.05307793031599721 0.6116745755309162 -0.056117632386162714
S 1.6481435915180902 -0.1099231856457528 0.021516313719729743
H -2.6846394293072584 0.5688582772023489 -0.9593316996496415
H -3.2399245955096916 -0.7743497321398681 0.048870381910678065
H -2.6985231039324655 0.7311221124202174 0.8032329683306555
H -0.9180171185378706 -1.223972629577125 -0.7753950104290707
H -0.9304938336368259 -1.0611069120366294 0.9773226689424184
H -0.1707022697349584 1.1522220777424403 -1.0006306005172327
H -0.18153632499822564 1.3163770324024204 0.7715814630636216
H 2.3205699969686813 1.0494438784334237 -0.08080399776120238
*
