! pbe def2-sv(p) def2/J RI DEFGRID1 loosescf d4 GCP(DFT/SV(P)) printgap
%output
    printlevel normal
end
* xyz 0 1
C 0.8420964202 1.3997079451 -0.6272265162
C 1.5871744755 0.183863849 -0.0579219839
H 2.570318986 0.0981953496 -0.5463837287
C 0.7845440153 -1.1070599458 -0.3371950739
H 1.2285442705 -1.9174208759 0.2520649437
C -0.6749958656 -0.9158427601 0.1158962653
H -1.2824649598 -1.7555269465 -0.2408481185
C -1.2753330015 0.3973207012 -0.4498983403
H -1.3703661764 0.3500744225 -1.5490234321
O -0.4529869834 1.5005941702 -0.0982083554
O -2.5317395912 0.6068489684 0.0583470333
O -0.7948085285 -0.8977041887 1.5142663953
O 0.8903569674 -1.5102644497 -1.6748326944
O 1.7336141778 0.2853225397 1.3426747821
H 0.8130191023 1.3350158024 -1.7266469268
H 1.3485328356 2.3274285403 -0.3465711673
H -2.4928698279 0.4079306491 1.0083630406
H -0.0643265342 -0.3608491249 1.8627398429
H 0.4251624381 -0.8877178827 -2.2450991925
H 2.111084566 1.1448314484 1.5627554347
*
