! r2scan-3c def2/J RI DEFGRID2 scfconv6 printgap
%output
    printlevel normal
end
* xyz 0 1
C -1.2633364285 0.2804373764 0.0182988305
C -0.0005265995 -0.5728464057 0.0182904508
N 1.221664531 0.2340925862 0.0182912458
H -2.1462185298 -0.3518407977 0.0699827666
H -1.2638621186 0.9469721407 0.878046797
H -1.3213877567 0.8807869541 -0.88893475
H -0.0241588359 -1.2515019939 -0.8425129054
H 0.0137714995 -1.192291378 0.9239540503
H 0.9962164186 1.2170791466 -0.0797552453
H 1.8295466968 -0.0177721606 -0.7510018164
*
