! wb97x-v def2-tzvp def2/J RIJCOSX DEFGRID2 scfconv7 GCP(DFT/TZ) printgap
%output
    printlevel normal
end
* xyz 0 1
C -2.9367495036217557 0.0001292998865435079 -0.001859891424879618
C -1.4317196940998518 -0.009175922044592047 0.001376498671234595
C -0.7081588207198463 -1.2006132177755469 0.0011993263532676804
C 0.6846996329558365 -1.2056646874744628 0.00015473994866804084
C 1.3800595749296583 0.0005656275347524444 -0.0006008687212888616
C 0.6776683101328529 1.2051347355724182 -6.108951241388564e-05
C -0.7094452164484978 1.1893497425845359 0.0010909691436003848
O 2.7484937190289056 0.06922741162570091 -0.0011673758542050862
H -3.3389723825846955 -1.0152789896843157 0.03777637955465896
H -3.332442699103519 0.5520346430826494 0.8576846760836774
H -3.328826613361563 0.48092283711980216 -0.9050338043088334
H -1.2381123980805036 -2.149163521625639 0.0020505496373191116
H 1.226170940420853 -2.1489487135380796 0.0005258177140241768
H 1.2305801429978673 2.1383308212259657 5.985408920173399e-05
H -1.2471489643385072 2.1341369685721583 0.001867606212633038
H 3.1062562501623927 -0.8254698533010579 -0.0013251659055426891
*
