! r2scan-3c def2/J RI DEFGRID2 scfconv6 printgap
%output
    printlevel normal
end
* xyz 0 1
C 0.8418623176 1.3796691928 -0.6452405917
C 1.5916426629 0.1833248352 -0.0469589605
H 2.5853373647 0.1059622143 -0.5220404054
C 0.7890383266 -1.1047743914 -0.331662592
H 1.2284581381 -1.9248352032 0.2567588975
C -0.668071701 -0.9222590259 0.123297414
H -1.2650194568 -1.7630402509 -0.2438966846
C -1.2665622968 0.3842041726 -0.4509475289
H -1.339606475 0.3181457947 -1.5467353661
O -0.442696777 1.4879215565 -0.096254126
O -2.5258671279 0.5993800697 0.0502547163
O -0.7868221928 -0.9148065996 1.5210403405
O 0.7795150331 -1.4057185232 -1.7037689483
O 1.7312930441 0.2991852307 1.3528072096
H 0.7905779614 1.2575141806 -1.736886242
H 1.3527788411 2.3174579275 -0.4086010282
H -2.4932281113 0.4067168153 1.0012303927
H -0.0749087677 -0.3535759997 1.8696017687
H 1.6644729504 -1.6703683628 -1.9792435726
H 1.9597325213 1.2103314649 1.5719623708
*
