! wb97x-v def2-tzvp def2/J RIJCOSX DEFGRID2 scfconv7 GCP(DFT/TZ) printgap
%output
    printlevel normal
end
* xyz 0 1
C -3.3046226357855857 -0.888311488241163 -0.28506736300458785
C -2.3068592390727654 0.008602766085541317 0.4477866092051041
C -1.2483942608877623 0.5749664008494957 -0.504428592368986
I 0.8076712579759436 0.04312652642578324 0.046769692627923805
H -3.818009807200521 -0.342967979437581 -1.0838105128337796
H -2.7947197799525307 -1.7465197969777837 -0.7350777106491877
H -4.0650722658945435 -1.2704902854193083 0.40206536650011293
H -1.8370311181269747 -0.5565300179060259 1.2564852678517402
H -2.832846397856871 0.8424018655281884 0.9265316569009691
H -1.2332366879245422 1.6629121377948575 -0.539323537340694
H -1.348491538448066 0.18331263084023583 -1.516583524764508
*
