! r2scan-3c def2/J RI DEFGRID2 scfconv6 printgap
%output
    printlevel normal
end
* xyz 0 1
C 0.5992282569 1.6999022408 -0.0354097333
C 1.3883061735 0.4089589527 -0.2723888193
H 1.580765594 0.2891743035 -1.3500708621
C 0.5573615763 -0.7927042587 0.2048622076
H 0.3963345521 -0.6944719882 1.2914847756
C -0.805822341 -0.7782813014 -0.5050331495
H -0.6479884659 -0.9534761387 -1.5730333139
C -1.4655645739 0.603949191 -0.3006138263
H -2.3569274407 0.6792360873 -0.9411806282
O -0.647079042 1.6678892674 -0.7026913671
O -1.8158674227 0.69324105 1.0529244006
O -1.6632212211 -1.7866991744 -0.0691836189
O 1.2137329181 -1.9961955671 -0.0848566316
O 2.5998062429 0.3881318498 0.4523195744
H 1.1244665542 2.5675656523 -0.4413699018
H 0.4564277171 1.8341897951 1.0456931311
H -2.2761430591 1.5268660329 1.2036367939
H -1.8403019013 -1.6416343623 0.8695046918
H 2.1099212001 -1.9243484432 0.2666954318
H 3.156740338 1.1178148689 0.1616150329
*
