! wb97x-v def2-tzvp def2/J RIJCOSX DEFGRID2 scfconv7 GCP(DFT/TZ) printgap
%output
    printlevel normal
end
* xyz 0 1
C 1.1947450649242317 -1.2118806012411227 -4.591958652155307e-05
C 1.8696578450222558 5.777301129471864e-05 -1.205206848928028e-05
C 1.1946961386799764 1.2119696682471468 2.6171843186016065e-05
C -0.19521878711959562 1.2014989721725522 4.720971538581341e-05
C -0.9153315264803652 2.53735782947824e-06 1.3941952886753355e-05
C -0.19517112502117476 -1.2014643819790265 -3.953095510700082e-05
Cl -1.029193845531884 -2.7252291031019604 -0.00012795234043315128
Cl -2.6420211811247927 -3.622505422758822e-05 1.980003331484608e-05
Cl -1.0292974079468624 2.7252353279337718 0.00011014072192052405
Cl 3.615381325869243 9.438708650269993e-05 -3.7220347632628236e-05
H 1.7309875997760127 -2.151523830289033 -8.802895893165358e-05
H 1.7309041001636856 2.1516325838817 5.066838487339143e-05
*
