! wb97x-v def2-tzvp def2/J RIJCOSX DEFGRID2 scfconv7 GCP(DFT/TZ) printgap
%output
    printlevel normal
end
* xyz 0 1
C -1.1142871156242273 -0.01859826171913943 -0.047832655474300996
C -0.018599363150993472 1.1143543761881247 0.047847501885551834
C 1.114286151773389 0.01859789604533057 -0.04784318493412692
C 0.01859924516998713 -1.1143548366810916 0.04792128592090046
F 0.02917358575851488 -1.7482276127243845 1.2325520694323855
F 0.0335756692281947 -2.0030904669651424 -0.954112552565108
F 2.0030378392496493 0.03362384961287766 0.9541638829772102
F 1.7481483248448813 0.029118264001636134 -1.2324834060949303
F -0.03358597301763682 2.003073521079033 -0.9541927291762787
F -0.029161897367460516 1.7482444276267834 1.2324781681009394
F -1.7481556664819484 -0.02921463081430105 -1.2324689792731902
F -2.0030327798382612 -0.03353739924621915 0.9541804905461363
*
