! r2scan-3c def2/J RI DEFGRID2 scfconv6 printgap
%output
    printlevel normal
end
* xyz 0 1
C 0.1980519434 0.0218331774 0.0237134431
N -1.3413402619 0.0105441758 -0.2084008163
O -1.804948543 0.9679807951 -0.7397730338
O -1.8943095734 -0.9722941737 0.1738913596
Cl 0.837655626 -1.3531187395 -0.8872533945
Cl 0.8531056744 1.5417195257 -0.5430692446
Cl 0.4414943355 -0.198216783 1.7599972169
*
