! pbe def2-sv(p) def2/J RI DEFGRID1 loosescf d4 GCP(DFT/SV(P)) printgap
%output
    printlevel normal
end
* xyz 0 1
C 2.2136385032 -1.1734413911 -0.1260842133
C 1.4038266968 0.1000725554 0.0055682513
O 1.9380150895 1.1939279434 0.0417240242
N 0.0618151998 -0.0193372074 0.079983656
C -0.7401219172 -1.2266197817 0.0105219676
C -2.1771844794 -0.7368288519 0.2043659715
C -2.1335385356 0.6878261257 -0.3432869527
C -0.7717684421 1.1722311069 0.1368133787
H 2.7697557517 -1.1250357531 -1.060167889
H 1.6134277742 -2.0751501504 -0.1100098247
H 2.9394000998 -1.2024298157 0.683843231
H -0.6245574089 -1.7060491334 -0.9696045379
H -0.4519595394 -1.9414008069 0.786622703
H -2.8980580183 -1.3694552701 -0.3095190005
H -2.424717873 -0.7171914747 1.2661939686
H -2.1654713043 0.6731141863 -1.4333292297
H -2.9486962567 1.3069615435 0.023825762
H -0.331775446 1.9546221288 -0.4836094161
H -0.8219959209 1.5416186032 1.1677999273
*
