! wb97x-v def2-tzvp def2/J RIJCOSX DEFGRID2 scfconv7 GCP(DFT/TZ) printgap
%output
    printlevel normal
end
* xyz 0 1
C -0.9336945190234264 1.0511595529874096 4.646327999446364e-05
C 0.4331337099695699 1.302685652286907 6.57446422453943e-05
C 1.3773617274021943 0.28296920782121204 6.844096406756603e-05
C 0.9116939768678124 -1.0263936420318887 8.474055157130422e-05
C -0.44350541456126646 -1.334130734803096 4.684792665315547e-05
C -1.3447641965936303 -0.2762627668092905 1.1732748704327945e-05
Cl -3.056670105287527 -0.628116039195659 2.997547660313813e-05
Cl 2.0719723204735887 -2.33341818753267 6.235984386438533e-05
Cl 0.9843374861780791 2.96122416048852 6.528961032917326e-05
H -1.6518972461634591 1.8600660850337978 4.2248026004645336e-05
H 2.4369764307560935 0.5006469450991422 7.370547571080205e-05
H -0.7847904621672046 -2.3606065373280787 3.997060517523423e-05
*
