! wb97x-v def2-tzvp def2/J RIJCOSX DEFGRID2 scfconv7 GCP(DFT/TZ) printgap
%output
    printlevel normal
end
* xyz 0 1
C -2.2301613474619977 4.77247160078026e-05 -0.00017649100585895612
C -1.5357283662594758 -1.2073189334284857 -7.932640386906973e-05
C -0.14790179860289882 -1.2150832511058558 8.889905654413255e-05
C 0.5505064799580959 -5.373473151586912e-05 0.0001539463658573906
C -0.14781749589473714 1.2150343912917556 0.00010102740930448152
C -1.5356479738039803 1.207371197151059 -6.62598930412016e-05
C 1.9754996860054208 -0.0001813425788072736 0.00027875160310988434
N 3.1333586507527116 0.00014451108692474618 -6.102381628028853e-06
H -3.3152046212282356 8.549572480025785e-05 -0.00033955492319001634
H -2.0775319575946423 -2.1471321059634567 -0.00014268776957543174
H 0.4041101166128753 -2.148218664510729 0.00016753379886902834
H 0.40425995047523533 2.1481335659913223 0.00018981823934042076
H -2.0773974652361695 2.1472175892661602 -0.00012061219990530656
*
