! pbe def2-sv(p) def2/J RI DEFGRID1 loosescf d4 GCP(DFT/SV(P)) printgap
%output
    printlevel normal
end
* xyz 0 1
C 1.7550464209 0.1878970927 -3.18165e-05
O 0.4823350554 -0.4234446101 4.91988e-05
C -0.6085892447 0.327092752 1.69279e-05
O -1.7128585464 -0.115968283 -3.78939e-05
H 2.295553038 -0.1356872397 -0.8909605704
H 2.2969068053 -0.1387189946 0.8889498225
H 1.6699960715 1.2787420867 0.0018631143
H -0.391297666 1.4212417021 0.0001456046
*
