! r2scan-3c def2/J RI DEFGRID2 scfconv6 printgap
%output
    printlevel normal
end
* xyz 0 1
C 1.2641854028 -0.2909098601 0.0037812238
C 0.0015694743 0.572190935 -0.0495740338
O -1.1217078539 -0.2822008375 0.043439754
H 1.8553202789 -0.1853510436 -0.9007664598
H 1.8837090289 -0.0351373112 0.8579235638
H 0.9578360629 -1.3292516836 0.0974303878
H -0.0388063817 1.1402133662 -0.9897794678
H -0.0088449042 1.2934810793 0.7798209306
H -1.9270483848 0.2437141009 0.0115149494
*
