! r2scan-3c def2/J RI DEFGRID2 scfconv6 printgap
%output
    printlevel normal
end
* xyz 0 1
C 0.8374098083 1.4054889308 -0.5654371009
C 1.588803122 0.1627642263 -0.065383174
H 2.5423707456 0.0876990079 -0.6105874192
C 0.7643969863 -1.1179687792 -0.3411477831
H 1.1999097038 -1.9522711546 0.2249928626
C -0.6847681386 -0.9087111481 0.143954537
H -1.3023801423 -1.7649385276 -0.1459909144
C -1.279036365 0.3832914032 -0.4637576443
H -1.3300182631 0.3255486938 -1.5647989726
O -0.4736217316 1.4825722245 -0.0738236679
O -2.5609866356 0.5928782377 -0.0181995004
O -0.7530348164 -0.8155361626 1.5430299157
O 0.8419961973 -1.5122237452 -1.6847898587
O 1.8180009449 0.3375681023 1.3163547662
H 0.8387161062 1.4124985785 -1.6666573863
H 1.3402751402 2.3005636245 -0.196841216
H -2.5574328673 0.4849654692 0.9455656308
H -0.1768246716 -0.0794873723 1.8120279967
H 0.4078031702 -0.8597151815 -2.2456452281
H 2.3181647269 -0.4128812546 1.6570491721
*
