! pbe def2-sv(p) def2/J RI DEFGRID1 loosescf d4 GCP(DFT/SV(P)) printgap
%output
    printlevel normal
end
* xyz 0 1
C 0.5945134275 1.7004031545 0.003260012
C 1.3969663165 0.4229541147 -0.2664023532
H 1.5710247139 0.3293998453 -1.3479766202
C 0.5494383083 -0.7729970702 0.2004124343
H 0.3644614525 -0.6708954544 1.280217041
C -0.7920274046 -0.7456265075 -0.5372126005
H -0.6085437048 -0.8772086076 -1.6133431491
C -1.4703152266 0.6207067266 -0.2962161922
H -2.3582202376 0.7050953636 -0.9429188495
O -0.6448918752 1.6716526851 -0.6766679603
O -1.8334620472 0.7352476053 1.0498341853
O -1.6599104807 -1.7407296045 -0.053175905
O 1.1631459647 -2.0201124497 -0.0700613642
O 2.6201849265 0.4990661514 0.4331516407
H 1.1259323704 2.5715905705 -0.37934623
H 0.4444328757 1.810816593 1.0825753484
H -2.2412895895 -0.1053240063 1.2980830072
H -1.1734716952 -2.5745634394 -0.070751864
H 1.9456041959 -2.0999160141 0.4863705766
H 3.2445391549 -0.1221012966 0.0432673903
*
