! r2scan-3c def2/J RI DEFGRID2 scfconv6 printgap
%output
    printlevel normal
end
* xyz 0 1
C -2.1661487204 0.4387642312 -0.6882953077
C -1.3275251043 0.4093834439 0.5910097434
C -0.0008269613 -0.2520281274 0.2995486024
O 0.2067494978 -1.4353948323 0.3394880436
O 0.9147788394 0.6600825229 -0.0498410617
C 2.2110808594 0.1969263882 -0.4050234753
H -3.1374689772 0.8834126816 -0.487140864
H -1.6667534149 1.025798837 -1.4554396877
H -2.3154397961 -0.5711610749 -1.0625926529
H -1.8421228968 -0.1710042277 1.3569085244
H -1.1516760572 1.4236558072 0.9479505097
H 2.1871287708 -0.881005014 -0.5752607908
H 2.905565009 0.4256796975 0.4047892883
H 2.5119631757 0.7213124753 -1.3108020938
*
