! wb97x-v def2-tzvp def2/J RIJCOSX DEFGRID2 scfconv7 GCP(DFT/TZ) printgap
%output
    printlevel normal
end
* xyz 0 1
C -2.5951211021270026 0.5802879633500425 -4.97901217549208e-05
C -1.2343740164686452 -0.067372508390995 2.2381874140493745e-05
C -1.139278595246661 -1.4608482199757928 3.0132851069201538e-05
C 0.10023670582676038 -2.0917231936182077 6.876743448658008e-05
C 1.26605104494708 -1.3419621295478423 -4.6171843064751635e-06
C 1.1764721270297716 0.04712602525648757 -0.00011147254322314285
C -0.06171219593325801 0.70686950750452 5.15019393915724e-05
C -0.08207127885533437 2.2133847622181655 2.5469987979522227e-06
O 2.361007101859543 0.7366254977757384 -0.000364493698542229
H -2.7447536627957527 1.2116266985557356 0.8830278135330457
H -2.7446064670049433 1.2116997980106665 -0.8830995968956095
H -3.378744096465913 -0.18032284971044316 -0.00011276751566228776
H -2.048175988292858 -2.0542948847949094 1.8151327506090235e-06
H 0.15822812588444196 -3.175527058572191 9.93663783076012e-05
H 2.246170725792432 -1.8058918723887842 -6.167093307331258e-05
H 0.4189399084736353 2.6266616026668417 0.8864596897050114
H 0.41357026675999725 2.626580740487819 -0.8895211723745642
H -1.0985241673039339 2.605233621953679 0.003147276038129117
H 2.180737942077171 1.6827488075448818 -0.0012525403635336586
*
