! pbe def2-sv(p) def2/J RI DEFGRID1 loosescf d4 GCP(DFT/SV(P)) printgap
%output
    printlevel normal
end
* xyz 0 1
C -1.9058854849 1.1915314864 -0.2495816043
C -1.5023639383 -0.1964942009 0.2278830988
C -0.0269751328 -0.5016773505 0.0934468411
O 0.4307646171 -1.6149563366 0.1095617428
O 0.7096602058 0.60767559 -0.0218012948
C 2.1185835193 0.4611615455 -0.135669658
H -2.9785438931 1.3250463728 -0.1317028125
H -1.3936061982 1.9587875347 0.3237563268
H -1.6538419335 1.3229756181 -1.2985985898
H -2.0434693116 -0.9719804677 -0.3177431963
H -1.7498238419 -0.316656084 1.2864389501
H 2.4281513378 0.8312810077 -1.1136230612
H 2.3928593731 -0.5901237243 -0.029565548
H 2.5853987652 1.0553438914 0.6496702279
*
