! wb97x-v def2-tzvp def2/J RIJCOSX DEFGRID2 scfconv7 GCP(DFT/TZ) printgap
%output
    printlevel normal
end
* xyz 0 1
C -2.4821548228867183 0.07171608268605396 0.37459899508764427
C -1.234414738985836 0.6968708478676046 -0.23237527820918075
C 0.032612230632213544 0.00715865974604789 0.2134019039496311
O 0.09413630558901849 -0.9540134149497435 0.9438177846273166
O 1.1215911156424765 0.6126456288846849 -0.32038601576432046
C 2.384763260420559 0.021115760689720375 0.04988765396042775
H -2.447420614464502 0.11492976557691496 1.4659313666307308
H -3.376769690626836 0.5992541848596207 0.033096169430995005
H -2.5682447778692823 -0.9801034262361595 0.09153631368584805
H -1.1449969707353747 1.7582461945793153 0.02823002490349521
H -1.2598219355998521 0.6656947944071928 -1.3285529964940084
H 3.145354530173402 0.623626536392159 -0.44662694868762615
H 2.4332130304680772 -1.0176554614471547 -0.28762043287474226
H 2.515766743797772 0.04987627690251424 1.1348889958088904
*
