! wb97x-v def2-tzvp def2/J RIJCOSX DEFGRID2 scfconv7 GCP(DFT/TZ) printgap
%output
    printlevel normal
end
* xyz 0 1
C -1.9463030167598956 1.2161052068868194 0.18806560651719745
C -1.5018822190456707 -0.2012515830872113 -0.15558844133138988
C -0.020284611056347192 -0.48870680510032444 -0.0726030435010895
O 0.4611928258534622 -1.5970913060571974 -0.11666724750632129
O 0.7196102473645234 0.6397715992754106 0.042136223667410454
C 2.145297232590491 0.4211978713177888 0.10338902812065193
H -1.6562915186036828 1.4856422181748274 1.2065932784741322
H -1.5023042880831543 1.9482386929186057 -0.4894977617936113
H -3.0343485588297034 1.2946706425945946 0.11199848950946473
H -1.7977712912792692 -0.46350759436248634 -1.1793546024453931
H -1.9885930144257524 -0.9416750599677214 0.48766410291453405
H 2.3946766479204067 -0.2290655616812925 0.9454317056976363
H 2.586109828675844 1.409576427679612 0.23209286753004557
H 2.4975779365021205 -0.04290163559163285 -0.8214940564187612
*
