! r2scan-3c def2/J RI DEFGRID2 scfconv6 printgap
%output
    printlevel normal
end
* xyz 0 1
C -2.9237546825 -0.0018673355 -0.0011301976
C -1.4243912969 -0.0098217162 0.001084311
C -0.7082419929 -1.1969419998 0.0006795433
C 0.6758808574 -1.1955413276 0.0001172543
C 1.3708658098 0.0056797253 -0.0002165921
C 0.6631599692 1.203739202 9.86329e-05
C -0.7160622301 1.1878706106 0.0007234542
O 2.733024733 0.0577936023 -0.0005745328
H -3.318453642 -1.013908671 0.0383896079
H -3.3029766484 0.553304982 0.8558753736
H -3.2993046359 0.4815040587 -0.9025263848
H -1.2341644418 -2.1410289294 0.0010878664
H 1.2190882367 -2.1320846668 0.0001846396
H 1.2132111091 2.1313285598 -2.6473e-05
H -1.2571623065 2.1230989605 0.0010267497
H 3.0916334047 -0.8376078405 -0.0010553434
*
