! wb97x-v def2-tzvp def2/J RIJCOSX DEFGRID2 scfconv7 GCP(DFT/TZ) printgap
%output
    printlevel normal
end
* xyz 0 1
C -3.5980852953313516 -0.6004163555281602 -0.22682869774990883
C -2.1511551666455215 -0.6701694408628962 0.27221930807059697
C -1.2547415064240242 0.1863924127232481 -0.5974848333319912
I 0.8314905394079103 0.12803591767932593 0.06556783638415921
H -4.250365515441548 -1.217212169880779 0.3978154302292185
H -3.97751557919315 0.4259554281915458 -0.19813846980205485
H -3.679467496250033 -0.9618635303755467 -1.2569145083503035
H -1.79781925947095 -1.7063143176243603 0.2588300350480736
H -2.0943460913555025 -0.3279913934313663 1.31065250417149
H -1.5261483138874032 1.2418611108809172 -0.5658509516253619
H -1.2262600788641653 -0.15509091251188847 -1.6324746859081853
*
