! wb97x-v def2-tzvp def2/J RIJCOSX DEFGRID2 scfconv7 GCP(DFT/TZ) printgap
%output
    printlevel normal
end
* xyz 0 1
C -2.2287445182982792 0.12652615970913922 0.14377806648074698
C -0.9181322351539449 -0.47037037285241595 -0.3508468484720411
S 0.4688927539445208 0.12470820083614766 0.6976466317183543
C 1.842522111067455 -0.7633196722696104 -0.11529371814359887
H -2.2025765865596307 1.2193643527272613 0.105557991295068
H -3.057953287504544 -0.2161464689982587 -0.4827802037805979
H -2.4336605503970112 -0.1746706511606283 1.1750412103366477
H -0.7257635021339904 -0.17645420005258924 -1.388939788260309
H -0.9491508959371623 -1.5649552719999729 -0.30376326405546655
H 1.9375139476159444 -0.46355852439921147 -1.163343413778877
H 1.701644014200015 -1.846517325085217 -0.0508463222707053
H 2.7611998446596195 -0.4955254138802704 0.41193688427759007
*
