! pbe def2-sv(p) def2/J RI DEFGRID1 loosescf d4 GCP(DFT/SV(P)) printgap
%output
    printlevel normal
end
* xyz 0 1
C -2.5015743577 0.7433710904 -4.60762e-05
C -1.2189731172 -0.0285768259 -2.165e-06
C -1.1918880154 -1.412749866 7.0832e-06
C 0.0095353535 -2.0996858241 2.19049e-05
C 1.2007887238 -1.3993754547 -9.723e-07
C 1.2126163213 -0.0118110093 -1.36669e-05
C -0.0066927273 0.6677342417 1.79266e-05
O -0.0699907616 2.0327374601 4.56371e-05
C 2.5103552454 0.7500688442 -4.14273e-05
H -2.5497574647 1.3874035006 -0.8768847539
H -3.3574452112 0.0740212461 -0.0001053985
H -2.5498459613 1.3873586819 0.8768197194
H -2.1248147655 -1.9573327031 1.70671e-05
H 0.0170221544 -3.1791623704 7.36308e-05
H 2.1401104833 -1.9333433943 2.4703e-05
H 0.8241144125 2.3926282029 0.0001675985
H 2.5970968408 1.3817036672 -0.8865906028
H 2.5974880757 1.3810894855 0.8869056037
H 3.3482332728 0.058211516 -0.0004680657
*
