! pbe def2-sv(p) def2/J RI DEFGRID1 loosescf d4 GCP(DFT/SV(P)) printgap
%output
    printlevel normal
end
* xyz 0 1
C 0.7221961324 0.0667820137 2.933e-07
O -0.6888584067 -0.0112147747 -9.905e-07
H 1.1952639742 -0.9153572421 0.0017673566
H 1.0492729648 0.615397631 0.8873959156
H 1.0496429405 0.6124116653 -0.8891226527
H -0.9655525889 -0.9302604672 -2.8392e-05
*
