! r2scan-3c def2/J RI DEFGRID2 scfconv6 printgap
%output
    printlevel normal
end
* xyz 0 1
C 0.203624104 -0.0002431404 -0.0064788289
N -1.3372001229 0.0026155259 -0.2114671469
O -1.8470656064 1.0769860808 -0.2582049022
O -1.8510546431 -1.069879948 -0.2578683688
Cl 0.8613529779 -1.4599259847 -0.7219895856
Cl 0.8669154112 1.4576519211 -0.7200115239
Cl 0.3999502939 -0.0018837901 1.7606380878
*
