! r2scan-3c def2/J RI DEFGRID2 scfconv6 printgap
%output
    printlevel normal
end
* xyz 0 1
C 1.5885434646 -0.0395048535 -0.5557968385
C 0.6603921969 0.375900982 0.5942189108
C -0.6704179482 -0.3781530849 0.5942151181
C -1.5784758604 0.0413189032 -0.5557965355
H 2.5021271471 -0.4912580217 -0.1774670082
H 1.104862947 -0.768085196 -1.2013100508
H 1.8679044787 0.8140632978 -1.1678927498
H 1.1601032835 0.1971851547 1.5482098672
H 0.4511606505 1.4458552311 0.5370327557
H -0.4766358494 -1.4517670375 0.5372010718
H -1.185770471 -0.1859274396 1.5384447748
H -2.5095785968 -0.5205744026 -0.5307433516
H -1.0994876953 -0.1351305737 -1.5157251143
H -1.8151846497 1.1008592061 -0.4834492787
*
