! wb97x-v def2-tzvp def2/J RIJCOSX DEFGRID2 scfconv7 GCP(DFT/TZ) printgap
%output
    printlevel normal
end
* xyz 0 1
C -2.498267878049774 -0.06808570256255966 -0.08300057396318739
C -1.234224022838197 0.7643652613313805 0.07660559842302428
C 0.02191637318979017 -0.06570073488315686 -0.03396615145367657
O 0.06572747947289352 -1.2638622634336645 -0.18463062831739221
O 1.1244866157993387 0.7176689696212095 0.06057916887973655
C 2.3786608118433783 0.010776274226613826 -0.02948907749572392
H -2.519850064114567 -0.5595731921617857 -1.0586612106925364
H -2.5480658761049853 -0.8499334287658835 0.6782915426767829
H -3.3849816542847555 0.5648075608952727 0.007734132785738513
H -1.2077921239868654 1.274345155613594 1.0474236506163823
H -1.1755731583639293 1.5611300745515284 -0.6742073251437262
H 2.454409993673307 -0.5120399335252211 -0.9864593542276298
H 2.4661568592954306 -0.7169143094193485 0.7816049368998851
H 3.151251135666788 0.7749224240513628 0.05407013974868722
*
