! wb97x-v def2-tzvp def2/J RIJCOSX DEFGRID2 scfconv7 GCP(DFT/TZ) printgap
%output
    printlevel normal
end
* xyz 0 1
C 0.7549670619393722 -1.2579327604139903 -0.47440254146297794
C 0.005167394637285982 4.117833637461481e-05 -0.034171123683774805
C -1.4204917918475244 -0.0013720617388468562 -0.570994046459411
C 0.7522259323553775 1.2599084971536223 -0.4736367291950921
O -0.13975600658291995 -0.0005525997941511256 1.404075876587177
H 1.7723902427795668 -1.2648778439892252 -0.06648629056132709
H 0.2335840537903865 -2.150496572188979 -0.11763697029892757
H 0.8322718259537596 -1.309501678564434 -1.5654232094321103
H -1.9543291893497918 -0.8884867873836934 -0.21940622301726906
H -1.4201466441332429 -0.001383475784173014 -1.6646714466217196
H -1.9561513104598949 0.8846524253037732 -0.21942284461159262
H 1.769785662504233 1.2686049663102144 -0.06608575746356053
H 0.8290280401671896 1.3125473268731462 -1.5646420392629556
H 0.22912106709920305 2.151093456634447 -0.11594314217183613
H 0.7455183250987657 0.0006129264377658878 1.7864405686475109
*
