! r2scan-3c def2/J RI DEFGRID2 scfconv6 printgap
%output
    printlevel normal
end
* xyz 0 1
C -1.4226499915 -1.0045920462 -0.0002843717
S -6.0264e-06 0.1216901792 1.12914e-05
O -0.0001518625 0.859984047 1.2312354428
O 0.0001612351 0.8603940311 -1.2309806433
C 1.4226528862 -1.0046010958 -4.2209e-06
H -2.3202970513 -0.3989016311 -4.63423e-05
H -1.3783706215 -1.6095396606 -0.8959859334
H -1.3782688095 -1.6099851687 0.8951037243
H 2.3202937503 -0.3988518147 0.000344585
H 1.3781468023 -1.6100365629 0.8953783742
H 1.3785043437 -1.6094996668 -0.8957591434
*
