! wb97x-v def2-tzvp def2/J RIJCOSX DEFGRID2 scfconv7 GCP(DFT/TZ) printgap
%output
    printlevel normal
end
* xyz 0 1
C 1.8574725780242556 -1.468326421376679 -0.00017647459613186274
C 0.5617267938703582 -0.7063679052908765 -3.7316317930946496e-06
C -0.6571060558654014 -1.3875508336362288 -6.769141706659158e-05
C -1.8503311659115558 -0.6783724889627496 -6.129263276282351e-05
N -1.9071885650929947 0.6571716505455034 0.00016206736663271825
C -0.7409596506959906 1.303563973606986 0.00039931766310696533
C 0.5179569338132184 0.6955056467710992 0.0002517878761477801
C 1.7488530687300181 1.5620491421938192 -6.158148094703737e-05
H 1.6734374430161902 -2.544847954037825 -0.0014448810654022644
H 2.462208085383151 -1.2277473613086671 -0.8813141353158144
H 2.461197874056969 -1.2297529572306594 0.8822183531853249
H -0.6726492729709191 -2.4738381208327356 -0.00016318052630790155
H -2.803756142305299 -1.2046254604213764 -0.00012229030949339922
H -0.7996706768472803 2.3935284542510282 0.000603734917525995
H 1.7690759521566106 2.207769646838968 -0.8846614000284603
H 1.762471847165859 2.217596066545586 0.8773359620085481
H 2.67028467857506 0.9788348091404948 0.006542168260691644
*
