! wb97x-v def2-tzvp def2/J RIJCOSX DEFGRID2 scfconv7 GCP(DFT/TZ) printgap
%output
    printlevel normal
end
* xyz 0 1
C -2.499198711313872 -0.0748245046000003 0.010671652638095488
C -1.2335788467477016 0.7694957537492123 -0.009431982416262448
C 0.021631869049884848 -0.06856719279818285 -0.002481500263919937
O 0.06536904562153005 -1.2760976105649313 -0.0027863338770713867
O 1.1248886743111859 0.7203256726003535 0.002556590586050939
C 2.378929203017257 0.006298178502266574 0.005416723241565003
H -3.3845402947606242 0.5662855278517138 0.0004139154695659922
H -2.5388980830409915 -0.7377210069595035 -0.8567315124593169
H -2.534587057737753 -0.7026044215613455 0.9041390794600935
H -1.18583433710195 1.4481049371290227 0.8505585832644984
H -1.1941409971711157 1.416096906092861 -0.8944770769401006
H 3.151733031766218 0.7747431698691474 0.011547528864698961
H 2.4634407855529266 -0.6196472400275083 -0.8867671745534095
H 2.4556745074470157 -0.6261908124072488 0.8936473180663166
*
