! wb97x-v def2-tzvp def2/J RIJCOSX DEFGRID2 scfconv7 GCP(DFT/TZ) printgap
%output
    printlevel normal
end
* xyz 0 1
C 1.7630768841341777 0.1885232012814443 -2.8304303713344437e-05
O 0.47720311641293156 -0.4538585474084985 3.502348338649616e-05
C -0.6196911559818743 0.3352273690250451 1.1427731161185097e-05
O -1.7302675217452712 -0.10935904301952346 0.00021359590620689006
H 2.304176448802248 -0.12710707219221876 -0.8951602211272073
H 2.305539122840533 -0.13043880394027543 0.8930696636430571
H 1.6633933528206273 1.2801665184117639 0.002117974237441593
H -0.37633829164078036 1.4180009409843233 -0.0002647998088287885
*
