! wb97x-v def2-tzvp def2/J RIJCOSX DEFGRID2 scfconv7 GCP(DFT/TZ) printgap
%output
    printlevel normal
end
* xyz 0 1
C 1.3840188104761144 0.5335561514537897 0.0005346824200492055
O 0.597961083226479 -0.6817856850620454 0.0014856632942881187
C -0.7323382020520169 -0.49095341267041415 -0.0005829684219310355
O -1.2908093522042254 0.5749782643972119 -0.003099182441440347
H 1.1568625683870437 1.1306310430709874 0.8872178196851602
H 1.1675469380544516 1.1220517240730548 -0.8945602772541683
H 2.423249108138111 0.2073637460406137 0.008174282659339106
H -1.2335236779502787 -1.4722987804157495 0.0006211298172774265
*
