! pbe def2-sv(p) def2/J RI DEFGRID1 loosescf d4 GCP(DFT/SV(P)) printgap
%output
    printlevel normal
end
* xyz 0 1
C 1.5704359533 -0.0341154707 0.56355658
C 0.672056302 0.3645183864 -0.6015530483
C -0.6720644368 -0.3645131357 -0.6015499002
C -1.5704253237 0.0341060151 0.5635562474
H 1.7287342152 -1.1106430591 0.5705427242
H 2.5388504974 0.4539252056 0.477668202
H 1.1296946919 0.2556026637 1.5138324654
H 0.4958524084 1.4423413957 -0.5714561164
H 1.1896058567 0.1409545512 -1.5377615732
H -1.1896453889 -0.1409751006 -1.5377664931
H -0.4958891334 -1.4423537801 -0.5713609769
H -1.1295439493 -0.2552955479 1.5138028793
H -2.5387584479 -0.4540913212 0.4778555342
H -1.7289304792 1.1105851023 0.5702067491
*
