! wb97x-v def2-tzvp def2/J RIJCOSX DEFGRID2 scfconv7 GCP(DFT/TZ) printgap
%output
    printlevel normal
end
* xyz 0 1
C -2.2328596429685037 0.3372888488721188 0.6608839049024148
C -1.313937826667016 0.4816285344649119 -0.5604527047115829
C 0.007686929856664127 -0.1912118571257715 -0.28962800367345304
O 0.1975089133889467 -1.3849844983721886 -0.317972272672567
O 0.9649781514759478 0.7100384623394697 0.0429894921257588
C 2.2438458179974803 0.13176246667469627 0.38227910236604884
H -2.3832626192720676 -0.7177225947037835 0.9032381724079261
H -1.8020871837366823 0.8357311762920349 1.5338376406132268
H -3.2072938357504324 0.7882130549160736 0.4569562690158726
H -1.156261371330346 1.5356037890337453 -0.8013244376936267
H -1.763094101813725 -0.01808359986737804 -1.4233894695809226
H 2.62838854379362 -0.45785428921522764 -0.4535328209722506
H 2.1470830884718093 -0.5134788189067371 1.2593225246464412
H 2.8989912204109847 0.9762935755984034 0.5945534077630624
*
