! pbe def2-sv(p) def2/J RI DEFGRID1 loosescf d4 GCP(DFT/SV(P)) printgap
%output
    printlevel normal
end
* xyz 0 1
C 0.8227217039 1.3177638287 -0.9888474427
C 1.4391218091 0.3510170814 0.0263369456
H 2.4707335427 0.1391290822 -0.2819209619
C 0.6418576862 -0.9805354477 0.0349430417
H 0.5999512641 -1.3337969305 1.0783102361
C -0.7978446841 -0.7751132471 -0.4696912772
H -0.7990716779 -0.8848436412 -1.5630730687
C -1.2848764161 0.634610015 -0.1068185586
H -2.3212365028 0.7671845706 -0.455247185
O -0.5367418198 1.6305073619 -0.7095963825
O -1.2476638005 0.8022328767 1.2970128131
O -1.6933615947 -1.6832272144 0.125770122
O 1.2166729671 -1.9685701152 -0.7914868671
O 1.5297493084 0.9100004926 1.3037375392
H 0.9022154165 0.8815710264 -1.9938995281
H 1.3502207148 2.2735762811 -0.9671675506
H -1.7271147805 0.0593383221 1.6847852707
H -1.4039273464 -2.575555528 -0.0963705657
H 2.1196029574 -2.1379193962 -0.5001156788
H 0.6344903406 1.1899135061 1.5659878618
*
