! r2scan-3c def2/J RI DEFGRID2 scfconv6 printgap
%output
    printlevel normal
end
* xyz 0 1
C -2.5608674364 0.6225142244 0.0001686588
C -1.225776805 -0.0575978717 3.86805e-05
C -1.1491640545 -1.4446284688 -8.5351e-06
C 0.0756663889 -2.0833344162 -9.22892e-05
C 1.2400414585 -1.3387431535 -1.21912e-05
C 1.1768751546 0.0480526559 -8.8604e-06
C -0.0572801191 0.7034574026 -7.98265e-05
C -0.1075705006 2.2012964099 -0.0001895747
O 2.3178584625 0.8022364212 0.0001550985
H -2.6684822499 1.2557910156 -0.8798056559
H -3.3651488883 -0.1085822962 0.0015179617
H -2.6673221791 1.2578060086 0.8788153855
H -2.0582922591 -2.0279281042 -8.03896e-05
H 0.1279599902 -3.1618263222 -0.0003069295
H 2.204596798 -1.8303973339 -3.4721e-06
H -0.6349753372 2.5664620069 -0.8807973876
H -0.6343357815 2.5668952876 0.8806776689
H 0.8991776499 2.6067648525 -0.0007109295
H 3.0832148699 0.2159574664 0.0004236761
*
