! r2scan-3c def2/J RI DEFGRID2 scfconv6 printgap
%output
    printlevel normal
end
* xyz 0 1
C -2.2552821182 0.2891412165 -0.629335252
C -1.3000943935 0.5142216722 0.543712107
C 0.0070918848 -0.192575323 0.2706531711
O 0.1764594085 -1.381968861 0.310851587
O 0.9704051186 0.6799064887 -0.0527367049
C 2.2414294082 0.1267114265 -0.3654412028
H -2.4032004292 -0.7759604009 -0.7896740876
H -3.2177265309 0.7497440941 -0.421773269
H -1.8503121796 0.7257154566 -1.5394177899
H -1.7333374218 0.0939763023 1.4522540835
H -1.108681568 1.5774326664 0.6841479078
H 2.6188539633 -0.4543963116 0.4783109313
H 2.8971377337 0.9676300978 -0.5754817458
H 2.1655507049 -0.5282769132 -1.2357463265
*
