! r2scan-3c def2/J RI DEFGRID2 scfconv6 printgap
%output
    printlevel normal
end
* xyz 0 1
C -2.4803313026 -0.0361284485 -0.1810637786
C -1.2271997479 0.756901107 0.1641427812
C 0.018100578 -0.0951451289 0.0680257732
O 0.0473949391 -1.2958303169 0.0884567775
O 1.1064284413 0.6828809934 -0.0286468335
C 2.3765503792 0.0462836492 -0.0946796385
H -2.4547014143 -0.3529972571 -1.2204771635
H -2.5404396895 -0.9247258805 0.4414603261
H -3.3680864305 0.5700013721 -0.0212812027
H -1.2836327568 1.1235178294 1.1925491712
H -1.1061865708 1.6228117449 -0.4876614151
H 2.8720818093 0.3682803241 -1.0104411568
H 2.2478824057 -1.0376705333 -0.0960242295
H 2.9626996837 0.3536678432 0.7717282923
*
