! pbe def2-sv(p) def2/J RI DEFGRID1 loosescf d4 GCP(DFT/SV(P)) printgap
%output
    printlevel normal
end
* xyz 0 1
C -2.2572319617 0.2868014141 -0.6258939136
C -1.294538704 0.5214704395 0.5389674833
C 0.0059413897 -0.1996527807 0.2700361152
O 0.1552370596 -1.3918659729 0.3094170499
O 0.9732150269 0.6688737624 -0.0496536539
C 2.2580538758 0.1478257754 -0.3656294335
H -2.4102222733 -0.7794619126 -0.7727848391
H -3.216537976 0.7538242006 -0.4184231398
H -1.8555148254 0.7107529365 -1.5432642114
H -1.7260827079 0.1166356499 1.4553435589
H -1.0949368632 1.5850229052 0.6645138381
H 2.2004518946 -0.9360408405 -0.4816178747
H 2.9487496213 0.397256167 0.4410087173
H 2.5872849331 0.6143409876 -1.2931973004
*
