! wb97x-v def2-tzvp def2/J RIJCOSX DEFGRID2 scfconv7 GCP(DFT/TZ) printgap
%output
    printlevel normal
end
* xyz 0 1
C -2.485033683406971 0.011350492336196826 0.2962700714295249
C -1.2313488101088372 0.7449871327352284 -0.1584073132902561
C 0.03249937411604598 -0.013795550893034306 0.1666054872298457
O 0.0878928554994392 -1.1247976511983164 0.6382057228755207
O 1.1281691801662013 0.7208614915229948 -0.14782900760886697
C 2.388359998252139 0.06737668353648497 0.10926563789357842
H -3.378906863583458 0.5752191895863209 0.01688514678880756
H -2.5405394386761255 -0.9803224161129914 -0.1580951069441873
H -2.4851043718129047 -0.124772197503681 1.3804649852623718
H -1.1548511355561146 1.7407611241028222 0.2929816118318017
H -1.2379472208377353 0.9140672432395007 -1.2424967621865313
H 3.154356561469994 0.7802667292090815 -0.19498570634495518
H 2.4659508275222413 -0.8545043043321126 -0.4729107394976339
H 2.4845052561765866 -0.17291524714830545 1.1712646086577663
*
