! wb97x-v def2-tzvp def2/J RIJCOSX DEFGRID2 scfconv7 GCP(DFT/TZ) printgap
%output
    printlevel normal
end
* xyz 0 1
C 4.227309254832326 1.2302014834922173 0.0001027593138730375
C 2.9244340617928968 1.7193611930777948 -9.675307270555077e-05
C 1.8524443814728224 0.8435403101220679 -0.0003106808772132319
C 2.074397981591159 -0.5311280113029948 -0.00032885708515536345
C 3.3640715321217636 -1.0370333785555337 -0.00010544398969015935
C 4.430242306011645 -0.14364958987470375 0.00010223506966290892
Cl 6.061372010771325 -0.7760467674784958 0.00037959343070743197
O 1.0338878337753716 -1.4352132091793668 -0.0005951948074737565
C -0.23409723782072053 -0.9005974582535557 -0.0003694825531984644
C -1.2957552143747055 -1.785447319403441 -0.00021589611742873943
C -2.597971441532442 -1.2981106026752254 -2.1095457057483346e-05
C -2.8471581532399997 0.07619228988740738 4.487645364454825e-05
C -1.757723608032759 0.9618035282314623 -0.00010033010212740011
C -0.4510530405004245 0.4768244087843768 -0.00032981273764154715
O 0.5785611187785206 1.3787380851258193 -0.0005363797207886038
Cl -1.9984589145563245 2.674415313173028 -2.765477302026444e-05
Cl -4.46266455777411 0.6873418404502164 0.0003105154397428026
Cl -3.9076434731209058 -2.439809079173172 0.00014787366812865502
H 5.0700674905536065 1.9097773871786632 0.0002628998638782311
H 2.7274724535940553 2.7855100622993847 -9.648735911709183e-05
H 3.518142149373844 -2.1090027496877144 -0.00010919732226806485
H -1.102296009187362 -2.8506940420289593 -0.000258920818058468
*
