! wb97x-v def2-tzvp def2/J RIJCOSX DEFGRID2 scfconv7 GCP(DFT/TZ) printgap
%output
    printlevel normal
end
* xyz 0 1
C 0.7206523373903269 0.07106803925116559 5.752384208778611e-05
O -0.7080643318357723 -0.010174372466011118 0.0005472753326778725
H 1.1949702796468187 -0.9170912644976212 0.0019573306922736644
H 1.05800374832465 0.6164221614968172 0.8896372396548569
H 1.0580562561388265 0.613126291047272 -0.8915581978980153
H -0.9616532780223579 -0.9355920327686212 -0.0006296482460397426
*
