! pbe def2-sv(p) def2/J RI DEFGRID1 loosescf d4 GCP(DFT/SV(P)) printgap
%output
    printlevel normal
end
* xyz 0 1
C 0.8580319155 1.2830850389 -0.9907426613
C 1.4430896479 0.3243120503 0.051722013
H 2.4862538024 0.12568357 -0.2223425249
C 0.6602914559 -1.0132473817 0.0150130094
H 0.6730103502 -1.4431155739 1.0291032115
C -0.8092011304 -0.8086411839 -0.4142799908
H -0.8673368001 -1.0031699887 -1.4894524262
C -1.2765743194 0.6285702459 -0.1373836455
H -2.3014886837 0.7552820395 -0.5184034886
O -0.5069174108 1.6102418198 -0.7507384113
O -1.2890999396 0.7970874223 1.272231395
O -1.6804857584 -1.7164491591 0.1932681076
O 1.2262183585 -1.9088884549 -0.9114266946
O 1.4908484133 0.8764942146 1.3369707879
H 0.9558316229 0.8231387142 -1.9818933026
H 1.3904450513 2.2363219425 -0.9758971869
H -1.6341251246 1.6758441107 1.469974823
H -1.7434477977 -1.4911941775 1.1309724034
H 2.0874063828 -2.1991364283 -0.5908083108
H 0.5738925917 1.0070225517 1.6329108215
*
