! wb97x-v def2-tzvp def2/J RIJCOSX DEFGRID2 scfconv7 GCP(DFT/TZ) printgap
%output
    printlevel normal
end
* xyz 0 1
C -0.3381755961393473 -1.2121671471449207 -1.8737425594632917e-05
C 1.0467325141063106 -1.2130652246951736 3.446454214851963e-05
C 1.7435621983715488 -0.001687114325218736 4.8026002989196304e-05
C 1.0499913196587916 1.2109955529907237 3.704576034955299e-05
C -0.33246821247476627 1.2101167311979584 -1.8718207968591363e-05
C -1.0424841681676815 -0.0007434513575344824 -7.996360312973416e-05
C -2.463995169320392 7.215119804038649e-05 -0.000626250912678304
N -3.622693367899943 -0.0011832570496363708 0.0006077901484860598
O 3.1011317248095858 0.06221742631231026 5.34030332176048e-05
H -0.8844906416751026 -2.148647127210383 -8.794190484599334e-05
H 1.5889425560457748 -2.155040711371253 1.5844386912281266e-05
H 1.6107916544305774 2.138826403002533 2.165434872743056e-05
H -0.8778675046470967 2.147181358297563 -8.820556391980717e-05
H 3.4678890389330324 -0.8296732545785872 6.579494719102601e-05
*
