! wb97x-v def2-tzvp def2/J RIJCOSX DEFGRID2 scfconv7 GCP(DFT/TZ) printgap
%output
    printlevel normal
end
* xyz 0 1
C -2.2525258269236765 0.3072764694602506 0.6443179111935351
C -1.3039022083075964 0.5090547721628659 -0.5452837714381886
C 0.002542389412765314 -0.1982649614234172 -0.2860002972741307
O 0.15322975481473916 -1.3964226472641734 -0.32970564785764994
O 0.9777713455687336 0.6879623707393268 0.04468921230325374
C 2.273774725998426 0.14625758724903015 0.378916413710543
H -3.218167843444119 0.7779685040042849 0.44285016150052997
H -2.416544714410104 -0.7577875901333923 0.8259403707797135
H -1.838444132209332 0.7539217946934418 1.5528845354277863
H -1.1271164139376992 1.572214315245055 -0.7236773562055454
H -1.7397449941400824 0.06545515235755806 -1.445453034317849
H 3.004324972212693 0.5981686225843131 -0.2957510957663914
H 2.2724643964905558 -0.9397037335563201 0.27225802121814485
H 2.497872954820696 0.42956240743818064 1.410151377961562
*
