! wb97x-v def2-tzvp def2/J RIJCOSX DEFGRID2 scfconv7 GCP(DFT/TZ) printgap
%output
    printlevel normal
end
* xyz 0 1
C -1.2525357752547097 0.30196253760436476 -0.0215825132912839
C -0.00605933872338028 -0.5711873220082271 -0.023103532000523383
N 1.2020231002904667 0.27108716371363534 -0.019972812613359984
H -1.2404106202094418 0.9858082979989755 -0.8750581968229781
H -2.158535878442751 -0.3093662078911903 -0.0727079755695986
H -1.3076838865463034 0.9033659846748129 0.8930070015044462
H 0.012558847987313614 -1.1774688206904222 -0.9372370874493553
H -0.05430312121389469 -1.27641675692914 0.8254461514231315
H 1.2290968326170677 0.8144110150044414 0.8374685120834499
H 2.030821164361938 -0.31351219654543605 -0.004107032220756161
*
