! pbe def2-sv(p) def2/J RI DEFGRID1 loosescf d4 GCP(DFT/SV(P)) printgap
%output
    printlevel normal
end
* xyz 0 1
C 0.8205632085 1.3148159373 -1.0023336372
C 1.4418911697 0.3295398373 -0.0027401778
H 2.4626632252 0.0989254294 -0.3271582192
C 0.6322431693 -0.9966133941 0.0280592137
H 0.6140275192 -1.3510347204 1.0655047566
C -0.8187400077 -0.7730571753 -0.4524148927
H -0.8603728655 -0.8674844677 -1.5446660013
C -1.283926651 0.6461283283 -0.0859946043
H -2.3216517956 0.7899591715 -0.424328231
O -0.5314578192 1.6449899 -0.7009315485
O -1.2341111218 0.7581957959 1.3226714437
O -1.711664545 -1.7295563764 0.0369789469
O 1.2670045472 -2.0228122767 -0.6868434019
O 1.5715384177 0.8971972839 1.2701009328
H 0.8762968457 0.8977647259 -2.0171522608
H 1.3621881378 2.2626162173 -0.9776925875
H -1.5760178368 1.6246188866 1.5734288548
H -1.7408211419 -1.6557466302 0.9992475551
H 1.2060137592 -1.8497581079 -1.6331565578
H 0.6777258626 1.0184976968 1.6299374336
*
