! pbe def2-sv(p) def2/J RI DEFGRID1 loosescf d4 GCP(DFT/SV(P)) printgap
%output
    printlevel normal
end
* xyz 0 1
C 0.6965666775 0.5531359153 0.2081494143
C -0.5724099443 -0.1557187983 -0.313805034
F -0.4882723577 -0.287097468 -1.6491153048
Cl -2.0013377399 0.8226569103 0.0738683186
Cl -0.6889757559 -1.7616243668 0.4172621212
F 0.7835201505 1.7883781987 -0.2972649015
F 0.6379011247 0.6841061145 1.5368210373
Cl 2.1481990648 -0.3667677543 -0.235862943
*
