! pbe def2-sv(p) def2/J RI DEFGRID1 loosescf d4 GCP(DFT/SV(P)) printgap
%output
    printlevel normal
end
* xyz 0 1
C -0.7838632352 1.24322e-05 0.6681746378
C 0.5939752289 -0.0002113482 0.0190974166
Cl 1.4841107427 -1.4428712193 0.5477928185
Cl 1.4845613814 1.4421446055 0.5485162351
Cl 0.4640582795 0.000462553 -1.7434057454
Cl -1.6740445201 1.4514221195 0.1821744682
Cl -1.674602977 -1.4510949153 0.1821106128
H -0.6947578551 0.0001493764 1.7578087031
*
