! wb97x-v def2-tzvp def2/J RIJCOSX DEFGRID2 scfconv7 GCP(DFT/TZ) printgap
%output
    printlevel normal
end
* xyz 0 1
C 0.6709781727880263 1.6834599925301474 -0.01808320099710269
C 1.4082721541209646 0.37872746719847455 -0.28429807559978054
H 1.5791769769050097 0.26879751309018224 -1.368744315403858
C 0.5426504260709415 -0.7766041385997501 0.1874750038543753
H 0.4007336986609913 -0.6840340002676155 1.2776370394682783
C -0.8151482856151032 -0.7202834002620004 -0.5079727370900404
H -0.6653115664377566 -0.8713510373132937 -1.583225801433885
C -1.4642350329937899 0.6513419593050803 -0.30475528893311693
H -2.347637711758436 0.7612841853492092 -0.9472582829843866
O -0.599692249169897 1.695726774172643 -0.6917222501162172
O -1.8308743200585134 0.7165014311417246 1.0692206235222421
O -1.6609095981433069 -1.7816753078361496 -0.06968381173025101
O 1.228185943992303 -1.9889328043712529 -0.12319866765827042
O 2.6445723302612065 0.4381303632523213 0.41732735759575523
H 1.2310824405461696 2.5310266308869305 -0.41799339041660377
H 0.5403417666071406 1.8201495979498692 1.0636231697243395
H -2.3866796062860542 1.4937787163686302 1.1957573468288474
H -1.9977666481234502 -1.5194150478683195 0.7984727849942048
H 0.6173745581050368 -2.7128538263608486 0.06465876989991731
H 3.031880077127663 -0.4450228735269011 0.37471161919627183
*
