! wb97x-v def2-tzvp def2/J RIJCOSX DEFGRID2 scfconv7 GCP(DFT/TZ) printgap
%output
    printlevel normal
end
* xyz 0 1
C -1.9340442224344176 -1.2087278605851366 -1.5262497153132386e-05
C -0.5426917835938319 -1.210256290014724 -5.9756133314102306e-05
C 0.1381987154028464 -0.000598306994594827 -7.335062834378608e-05
C -0.5485670155084724 1.2085146351582179 -5.055679865083818e-05
C -1.9370595716378158 1.2070674378513662 -7.542933019749956e-06
C -2.6327899235443417 -0.0015185184487327653 1.3328654084145536e-05
O -3.9968611933318936 0.06273379572773738 5.9557850258715525e-05
Br 2.0515261657415373 0.002821133253263568 -0.00014154313457205212
H -2.4715912707271728 -2.1537854795396956 2.387844005123641e-07
H 0.0014735542589936756 -2.1473367325565067 -7.72633799591603e-05
H -0.00518822142614697 2.1461363192634795 -6.241194162536439e-05
H -2.492945209699897 2.1382625446322616 1.3689284506098819e-05
H -4.3585482676025995 -0.8304906640241363 5.7206109331747446e-05
*
