! wb97x-v def2-tzvp def2/J RIJCOSX DEFGRID2 scfconv7 GCP(DFT/TZ) printgap
%output
    printlevel normal
end
* xyz 0 1
C -2.2457635470667663 0.3132276863391014 0.6502189887266132
C -1.3096504392572788 0.49855662854918553 -0.5521286734846563
C 0.008553396968491408 -0.18327494621870752 -0.28725897706263903
O 0.1915562557789162 -1.3777040465012718 -0.3253351009861455
O 0.9721110665990185 0.7099223287427999 0.048650165916591
C 2.249767504339108 0.12414162045463836 0.3780178109423146
H -1.8288235667700594 0.7845940124970018 1.5447959419740036
H -3.2183762904809905 0.7684848218583876 0.44695301765794887
H -2.396488343091177 -0.7492691954927773 0.8568326131922729
H -1.1488646383022394 1.5598088928507858 -0.7561480974507584
H -1.746788452013051 0.028731683055133624 -1.4380274656176755
H 2.6374028118098978 -0.44530093179997643 -0.47044999947875765
H 2.151348285197016 -0.5416631920209503 1.2393919638332838
H 2.9039904614010728 0.9638878724384597 0.6115197061023534
*
