! pbe def2-sv(p) def2/J RI DEFGRID1 loosescf d4 GCP(DFT/SV(P)) printgap
%output
    printlevel normal
end
* xyz 0 1
C -2.1289892399 0.510046219 -0.7013936774
C -1.342718199 0.3565856933 0.6020911748
C -0.0041663486 -0.2775794618 0.3042780862
O 0.2288684042 -1.4561753273 0.3458409808
O 0.8896973191 0.6544806176 -0.0487509189
C 2.1939779981 0.222644257 -0.4136580061
H -1.5954552055 1.1605500588 -1.390207675
H -2.2691437037 -0.4596148231 -1.1731924882
H -3.1054354716 0.942924137 -0.4991450686
H -1.885979017 -0.290394444 1.2907009561
H -1.1825330693 1.3333899825 1.0577566418
H 2.9031206298 0.5783167132 0.334719677
H 2.432345937 0.6554064002 -1.3848362336
H 2.22314131 -0.8673533138 -0.4649635437
*
