! wb97x-v def2-tzvp def2/J RIJCOSX DEFGRID2 scfconv7 GCP(DFT/TZ) printgap
%output
    printlevel normal
end
* xyz 0 1
C 5.3000999610848185e-05 1.8119664290913695 3.65735257130213e-05
C 1.90915664042372e-05 0.4865195661170518 0.00014076247609454782
Cl 1.458672239753572 -0.46010041663782525 -3.658281518082487e-05
Cl -1.4586888552705335 -0.4600221528198955 -5.960150383310849e-05
H -0.9349839595772631 2.357112691629893 -1.4820130416101924e-05
H 0.9351183138615531 2.357064346335287 9.942385484800394e-07
*
