! wb97x-v def2-tzvp def2/J RIJCOSX DEFGRID2 scfconv7 GCP(DFT/TZ) printgap
%output
    printlevel normal
end
* xyz 0 1
C 3.512297759064103 -3.6307023317136828e-06 -6.239658536309492e-06
C 2.8241497456458857 -1.207482098203035 -4.685717253263219e-06
C 1.42321546333062 -1.232923436077084 1.5898329496143943e-06
C 0.6799868627354151 -2.4550005102904273 6.000209917854067e-06
C -0.6799902944426781 -2.4549985960429015 7.835036347615134e-06
C -1.4232172466051456 -1.2329207908979374 3.5550235293341303e-06
C -2.8241503371629286 -1.207476841289641 -1.8854952588099333e-06
C -3.512295839582919 1.951359448505594e-06 -8.48507913606544e-06
C -2.8241482992553886 1.2074800424544225 -7.022739862256385e-06
C -1.423215546911144 1.232922062477738 4.5640825322825206e-08
C -0.7095906919257993 4.7183562103951986e-08 3.1493756104780143e-06
C 0.7095874060723539 -1.0716584126757334e-06 3.561344863330138e-06
C 1.4232175786411065 1.2329201182525826 3.542595580287117e-06
C 2.8241514525287914 1.20747622028832 -9.540546514713643e-07
C 0.6799906730209814 2.4549984562711926 6.309834319039845e-06
C -0.6799863500870758 2.454998743624859 3.7476076107506e-06
H 4.597616555484516 -4.1199083851972405e-06 -1.2515798327268144e-05
H 3.3696143531382496 -2.14679599472635 -8.554908514101916e-06
H 1.2297654206366537 -3.3919935503970184 7.433313637761567e-06
H -1.2297689877922005 -3.39199093483419 1.1121232726201733e-05
H -3.3696155591982384 -2.146789051933835 -1.5151496883212755e-06
H -4.597613317599947 3.3199982820156077e-06 -1.509475433806007e-05
H -3.3696132270766306 2.146792380540221 -1.2288655200961413e-05
H 3.3696186264111065 2.1467886040014763 -1.3646523404946966e-06
H 1.22977064302722 3.391990626346345 9.916599848806082e-06
H -1.2297634568134521 3.3919919658331446 4.806073757275089e-06
*
