! r2scan-3c def2/J RI DEFGRID2 scfconv6 printgap
%output
    printlevel normal
end
* xyz 0 1
C -0.3376104916 -1.2063010593 -1.90927e-05
C 1.0417068605 -1.203174853 -1.49821e-05
C 1.7405087266 0.0018425639 1.0063e-06
C 1.0405279448 1.2087485763 -1.39999e-05
C -0.3360789197 1.2092780679 -1.81209e-05
C -1.0367874913 0.00058903 -7.965e-06
C -2.4487207133 -0.001355942 1.38941e-05
N -3.5955996703 -0.0053214392 2.16446e-05
O 3.0925312592 0.0508496663 2.70535e-05
H -0.8805689504 -2.1396915023 -3.26244e-05
H 1.585141623 -2.1388066626 -2.02126e-05
H 1.6004132681 2.1300871457 -1.769e-05
H -0.880978313 2.1413154184 -2.7741e-05
H 3.4623811769 -0.8408564236 7.42231e-05
*
