! pbe def2-sv(p) def2/J RI DEFGRID1 loosescf d4 GCP(DFT/SV(P)) printgap
%output
    printlevel normal
end
* xyz 0 1
C 0.6186681418 1.4763834454 -0.0977608255
C 1.5007709608 0.2182791216 0.0959111531
H 2.4352195336 0.3107958816 -0.4729276454
C 0.7504461391 -1.0196601684 -0.4516401967
H 1.2415698462 -1.9185055573 -0.0627481177
C -0.70567204 -0.9900903789 0.0412351071
H -1.2466441201 -1.8554901332 -0.3552060706
C -1.3990210934 0.3199197844 -0.4698350662
H -2.0490391163 0.1119257889 -1.3292987869
O -0.4386072279 1.2187627305 -0.9960282442
O -2.1454575021 0.8980363896 0.5374658243
O -0.7807017639 -1.0612478724 1.4443855
O 0.8380574067 -1.0935201712 -1.8441697933
O 1.7829858993 -0.0147301691 1.4654874072
H 1.1827954377 2.3024663214 -0.5336767579
H 0.2139779222 1.7950032149 0.8730949382
H -1.9507684494 0.4005140859 1.3559623937
H 0.0627071301 -0.7517783189 1.8138687234
H 0.4338380566 -0.2941802057 -2.212518447
H 2.3635174488 0.6782141599 1.7974393586
*
