! r2scan-3c def2/J RI DEFGRID2 scfconv6 printgap
%output
    printlevel normal
end
* xyz 0 1
C -1.9694399459 -0.2206644043 -0.4961416114
C -1.1709660295 -0.1127909449 0.7970395331
C 0.1145331434 0.6865804586 0.6386992463
S 1.3837542898 -0.1623188139 -0.3685200477
H -1.4203556802 -0.7875970834 -1.2450051141
H -2.9117897645 -0.7306382712 -0.3129070475
H -2.1862533496 0.7680668334 -0.896573925
H -0.9269729858 -1.1123765203 1.1622561204
H -1.7799992105 0.3834032064 1.5573429557
H -0.0728356211 1.6600799242 0.1856661119
H 0.5957380436 0.8320138519 1.6056812294
H 0.7459213438 -0.0579410407 -1.5313574975
*
