! pbe def2-sv(p) def2/J RI DEFGRID1 loosescf d4 GCP(DFT/SV(P)) printgap
%output
    printlevel normal
end
* xyz 0 1
C 0.8513081762 1.3709441797 -0.6377828642
C 1.5881610853 0.1625402689 -0.0486103548
H 2.5688533641 0.0632121136 -0.5367453474
C 0.7761099848 -1.112166274 -0.3318670968
H 1.2181029354 -1.9363052333 0.2504615574
C -0.679956579 -0.916855373 0.130665612
H -1.3016177629 -1.7513494308 -0.2181230551
C -1.265652783 0.3943232461 -0.4506447886
H -1.3340312656 0.3269528958 -1.5480878376
O -0.4379229488 1.489058496 -0.0949386376
O -2.5306738523 0.6171787201 0.0357318846
O -0.7881599514 -0.9014085876 1.529492956
O 0.8650784874 -1.3606393312 -1.7131172558
O 1.7349517387 0.2722172941 1.3519003872
H 0.8085501819 1.25784363 -1.7295109463
H 1.3682673884 2.3009993279 -0.38678995
H -2.4993484707 0.4733958981 0.994807821
H -0.0632787523 -0.350591685 1.8688257258
H 0.399610111 -2.1799824594 -1.9150457548
H 2.0627145816 1.1541394202 1.5624546703
*
