! pbe def2-sv(p) def2/J RI DEFGRID1 loosescf d4 GCP(DFT/SV(P)) printgap
%output
    printlevel normal
end
* xyz 0 1
C 0.5869612642 1.4509147373 0.0392557843
C 1.5317766931 0.2274733061 0.0486535955
H 2.3661818531 0.3918003642 -0.6426759972
C 0.7601973131 -1.0409186347 -0.3889582006
H 1.2507325151 -1.9043449855 0.088720298
C -0.676251233 -0.9452796748 0.1333537614
H -1.2310228354 -1.8530689105 -0.1424864604
C -1.3619065053 0.261982654 -0.5446475855
H -1.8045423564 -0.0555132555 -1.4991396851
O -0.4778878616 1.2898298997 -0.8767729425
O -2.3608494549 0.7110915088 0.3396849056
O -0.6331974263 -0.8079052394 1.5316846329
O 0.6894427548 -1.2144979335 -1.779681896
O 2.1084715117 0.0415385421 1.3115725892
H 1.1127974812 2.3519800385 -0.277172178
H 0.2006278297 1.6047805261 1.0559855671
H -2.7297437685 1.528023573 -0.013818096
H -1.4684102561 -0.3925954757 1.7919024891
H 1.5831443399 -1.2049208736 -2.1411296198
H 1.4002076852 -0.2384011067 1.9112421708
*
