! pbe def2-sv(p) def2/J RI DEFGRID1 loosescf d4 GCP(DFT/SV(P)) printgap
%output
    printlevel normal
end
* xyz 0 1
C 1.400797233 -0.0006187001 -4.40983e-05
C 0.693534123 -1.1923695618 -4.87244e-05
C -0.6921922123 -1.1330103089 0.0001160767
N -1.3716724636 0.0006158367 -2.4666e-06
C -0.6911418371 1.133597698 -0.0001101818
C 0.6946195266 1.1917715439 0.0001482449
H 2.4816391647 -0.0010953095 -0.0002455805
H 1.203638907 -2.1434262061 -0.0002367608
H -1.2905458152 -2.035034603 -4.00636e-05
H -1.2887761099 2.0361242566 -0.0003877639
H 1.2055240714 2.1423732552 0.0002137401
*
