! pbe def2-sv(p) def2/J RI DEFGRID1 loosescf d4 GCP(DFT/SV(P)) printgap
%output
    printlevel normal
end
* xyz 0 1
C -2.3044194379 0.2130517971 0.5784141566
C -1.2808026496 0.5744119929 -0.4976456548
C 0.0097201479 -0.1720646676 -0.248543159
O 0.1378976805 -1.366467963 -0.292638088
O 1.0007856378 0.6753685725 0.0557917458
C 2.2779833712 0.1170159798 0.3350023048
H -3.2568561207 0.6919503165 0.3661117066
H -2.4497095135 -0.8640660854 0.6044716773
H -1.9608001596 0.5412187449 1.5567352127
H -1.0786702976 1.6449370234 -0.4993956059
H -1.6608144788 0.2738421806 -1.4755540624
H 2.7476771434 0.753021521 1.0825288765
H 2.8790301669 0.1042543137 -0.5762655057
H 2.1670324781 -0.9027353573 0.7082375198
*
