! wb97x-v def2-tzvp def2/J RIJCOSX DEFGRID2 scfconv7 GCP(DFT/TZ) printgap
%output
    printlevel normal
end
* xyz 0 1
C -2.1149496461994812 0.45374335263381804 -0.7171185458068866
C -1.3491569619102493 0.4038673530436577 0.6119529870690869
C 0.02832324774476133 -0.18245327488785062 0.42918444645638126
O 0.3838169785442945 -1.279263100870364 0.7932986013104388
O 0.8348426479992891 0.6793916949499046 -0.2396524425793713
C 2.163041979945892 0.18290272298398902 -0.5058100597885452
H -1.603018089421838 1.0964642170404972 -1.4373028246398416
H -2.205894660195715 -0.5468779250355942 -1.1496646366506689
H -3.1222957321715206 0.8477869863224223 -0.5584088848005235
H -1.8722538864673892 -0.22257744081491584 1.3374483721112278
H -1.2536745953280783 1.4142792431023428 1.0232427038276992
H 2.684216099552204 -0.031127123437307152 0.4307997213184941
H 2.6676250011075155 0.977871061109468 -1.0546951555093154
H 2.1161002132579023 -0.7307892582444793 -1.1040335257181315
*
