! pbe def2-sv(p) def2/J RI DEFGRID1 loosescf d4 GCP(DFT/SV(P)) printgap
%output
    printlevel normal
end
* xyz 0 1
C -1.9220981719 -0.2587697497 -0.5199776211
C -1.1748139486 -0.0860384909 0.7959406224
C 0.0998919125 0.7253681081 0.6303441484
S 1.3211794574 -0.1977887506 -0.3899389604
H -2.8230841856 -0.8480536932 -0.3700133773
H -2.205384604 0.709176544 -0.9284601586
H -1.2932630602 -0.7688545881 -1.2460192892
H -0.9222776003 -1.0663048112 1.2060801649
H -1.8140551239 0.4272685615 1.5192691562
H -0.1023538461 1.6704797009 0.1255721647
H 0.5674314748 0.9148841339 1.5966759589
H 2.2830319045 0.7177319388 -0.2999813968
*
