! r2scan-3c def2/J RI DEFGRID2 scfconv6 printgap
%output
    printlevel normal
end
* xyz 0 1
C -2.2240957684 0.3411048677 -0.6537048844
C -1.3060920638 0.4816618121 0.5617720483
C 0.0032102082 -0.2184876555 0.2813636392
O 0.1738154988 -1.4077525195 0.3239617265
O 0.9526475894 0.6658765137 -0.047853742
C 2.2403352267 0.1655037338 -0.3843148542
H -1.7820037565 0.8240208143 -1.5220822587
H -2.3826898471 -0.7100431709 -0.8819097117
H -3.186140711 0.8046219948 -0.4505989021
H -1.7702399287 0.0082536526 1.4275616611
H -1.1126038175 1.5326638714 0.7734002722
H 2.3095785999 -0.8904406701 -0.1163398453
H 2.9771934921 0.7483720859 0.166557662
H 2.3981692886 0.2856968326 -1.4571204274
*
