! wb97x-v def2-tzvp def2/J RIJCOSX DEFGRID2 scfconv7 GCP(DFT/TZ) printgap
%output
    printlevel normal
end
* xyz 0 1
C 2.401579450088043 5.7937760136260195e-05 0.025888914281966297
N 0.9887433354981825 2.178713011126162e-05 -0.32882116897929664
C 0.32304857415243665 1.1992028042632428 0.18164959074029613
C -1.1504965637957725 1.20165195548937 -0.22152807853750142
N -1.8727396002524055 -6.460112330850258e-05 0.21249461215521057
C -1.1504300340544484 -1.2017368004934053 -0.22154217312919444
C 0.32311727833975296 -1.1992062645290567 0.18162793413542697
H 2.8890424321919213 -0.88708410881845 -0.39278008357962674
H 2.569106800937565 6.573985353031114e-06 1.1216401759129417
H 2.8889697915091683 0.8872827876331693 -0.3926867576671445
H 0.40001762951031367 1.2605246754551993 1.290298199831182
H 0.8284573147048114 2.083167059812039 -0.22927918257341104
H -1.6492059905329917 2.086238002242146 0.1912797584153136
H -1.2207837260605428 1.2608785962140805 -1.315632874356561
H -1.914985905327194 -7.186421345426367e-05 1.2288428259064161
H -1.6490862679064207 -2.0863533725495587 0.1912640590439707
H -1.2207219159785596 -1.2609604875688198 -1.3156463296845886
H 0.40009459937966696 -1.2605427636127526 1.2902751283259026
H 0.8285755671125015 -2.0831347346156166 -0.22931717920654357
*
