! r2scan-3c def2/J RI DEFGRID2 scfconv6 printgap
%output
    printlevel normal
end
* xyz 0 1
C -2.5921365496 1.4078413743 -3.12151e-05
C -1.6082887041 0.2888199444 1.79901e-05
C -1.8715655732 -1.0479405801 5.39728e-05
N -0.7014869234 -1.7641037096 0.0001110107
C 0.3483811752 -0.8935541594 -8.03385e-05
C -0.1842888262 0.418671891 -5.89551e-05
C 0.6849768119 1.5091142578 1.08508e-05
C 2.0407845704 1.2715542989 3.98048e-05
C 2.5517139345 -0.0295225239 1.00246e-05
C 1.7177276942 -1.1266274241 -4.92642e-05
H -2.4563971531 2.0352100034 0.8807894174
H -2.4564073241 2.0348743371 -0.8809932742
H -3.6079846725 1.0205261438 -0.0001110953
H -2.8195028577 -1.5521915391 0.0001660123
H -0.63154609 -2.7668622778 -0.0005643439
H 0.2977962667 2.5172830522 -3.3319e-06
H 2.7308687816 2.1028847058 0.0002555992
H 3.6221793191 -0.1742679861 7.50269e-05
H 2.1122449876 -2.1326220772 -0.0001184035
*
