! wb97x-v def2-tzvp def2/J RIJCOSX DEFGRID2 scfconv7 GCP(DFT/TZ) printgap
%output
    printlevel normal
end
* xyz 0 1
C -2.585686803540608 0.6022930363630673 0.0010818188832652737
C -1.231784575392635 -0.05858550964095281 9.325705516576075e-05
C -1.1509485218423718 -1.455066853586913 0.0002677975422482952
C 0.07915564488621352 -2.0991754155764863 -0.00039339636000951836
C 1.2525537352347105 -1.3555763680035482 -0.00038182646821649307
C 1.1737046488027596 0.034255201682263356 -0.00021201205264754166
C -0.05595544692244863 0.7062855053763374 -0.0012377934772232156
C -0.04386014473239057 2.209371909499403 -0.001613241522186932
O 2.2976833325481363 0.8232857198274786 0.0015606819939241068
H -2.7315738210068554 1.225290648975056 -0.888215381724185
H -3.378233485811744 -0.14899224703221328 0.015707238343264575
H -2.7198358927794275 1.2478760117443775 0.8757767953777665
H -2.0656771269099456 -2.0394606022139254 0.001145552845392098
H 0.12870575197379192 -3.183350566625025 -0.0003589406710909851
H 2.222236792140373 -1.8481988255998802 -4.745522464969555e-05
H 0.4550156556528111 2.5945017574570413 0.8945794305960691
H 0.5218112203756881 2.592453016744705 -0.8574790032272755
H -1.0497157041459173 2.626661387617536 -0.039988280800098606
H 3.075388819314206 0.25447513308826386 0.0007013097987407675
*
