! wb97x-v def2-tzvp def2/J RIJCOSX DEFGRID2 scfconv7 GCP(DFT/TZ) printgap
%output
    printlevel normal
end
* xyz 0 1
C 1.0307409708162858 1.343203538630273 0.00022231481756554433
C 0.335990046990711 0.1848180006557062 0.00011350432105500713
C 1.034023237180491 -1.0981390214308018 -4.241807234399102e-05
O 0.5271698941089502 -2.2009189370875037 -1.6633369712441676e-05
N 2.4373436417057555 -0.9536424946916133 -0.00025758857096399017
C 3.18933294271945 0.20838426085946493 -0.00011747270973788209
O 4.402507137252091 0.24017162232944345 -0.00021569936886555282
N 2.400991381353665 1.3572052858510137 0.0001468066238819595
I -1.7507249062610906 0.15479742959501042 0.0002625937793233277
H 0.5473703562544696 2.3137021981272348 0.0003873629594037889
H 2.968288475547648 -1.8150580569560817 -0.0003588571593016978
H 2.908220567307506 2.228499203171772 0.00018526383529527646
*
