! pbe def2-sv(p) def2/J RI DEFGRID1 loosescf d4 GCP(DFT/SV(P)) printgap
%output
    printlevel normal
end
* xyz 0 1
C -0.610436366 0.4443763453 1.280860268
C 0.6105835342 -0.4441166791 1.281031123
Br 1.7799619104 -0.0513482158 -0.2352699073
Br -1.7799882869 0.0512975169 -0.2352550296
H -0.3427797559 1.4980189663 1.2035336951
H -1.2009938526 0.276521498 2.182261268
H 1.2012345209 -0.2757661232 2.1823135074
H 0.3428763689 -1.4978494509 1.2043362808
*
