! wb97x-v def2-tzvp def2/J RIJCOSX DEFGRID2 scfconv7 GCP(DFT/TZ) printgap
%output
    printlevel normal
end
* xyz 0 1
C -2.5616135535194187 0.6243185153064598 5.9477964254089634e-05
C -1.2229419062058913 -0.060685865779612005 5.347079552891272e-05
C -1.1510107898076791 -1.4553439235980996 4.8287320998905435e-05
C 0.08004329661143035 -2.099618842501786 -2.3096254701683762e-05
C 1.2518856101252087 -1.3559794496984023 -2.8843717386187128e-05
C 1.1830617741268041 0.03680421550554052 -1.858347965184212e-06
C -0.04660366215940605 0.7072366058635333 -1.9956634774715457e-05
C -0.10363321936766039 2.209613737835765 -0.00014219845127287826
O 2.322741707298005 0.8038176525095454 2.6853511329693717e-05
H -2.6834936866199124 1.2660704850671773 -0.8801615409681323
H -3.3733894149413834 -0.10625670222686512 0.0011247344253946137
H -2.682665738688531 1.2677487825978058 0.8791567878833697
H -2.0679142785405324 -2.036535639187227 9.250862430006727e-05
H 0.13043515092309638 -3.1837005715016624 -5.669713623927513e-05
H 2.2198994966144565 -1.851819606038248 -5.408864912910949e-05
H -0.640261131329261 2.582191048619418 -0.8803030504873411
H -0.6394471291773739 2.5824070516692577 0.880425362418391
H 0.8941543160610752 2.6463348889736884 -0.000643272719741593
H 3.0869280388699645 0.2175936259283125 0.00014848481706946793
*
