! r2scan-3c def2/J RI DEFGRID2 scfconv6 printgap
%output
    printlevel normal
end
* xyz 0 1
C 1.6398208089 1.1963465268 2.41766e-05
C 0.2549601437 1.228968472 -0.0001458547
C -0.4266001527 0.0204577244 -0.0001004626
C 0.2995217444 -1.1654159952 -0.000115809
N 1.617418042 -1.1860474456 -2.05327e-05
C 2.2725972896 -0.0380032609 0.0001488929
Cl -2.1522225817 -0.0100677281 6.59458e-05
H 2.2113145782 2.1113536012 7.42107e-05
H -0.2855250912 2.1631662357 -0.0001258378
H -0.1969436705 -2.1257910915 -5.33171e-05
H 3.351039681 -0.1171438372 0.0003235972
*
