! pbe def2-sv(p) def2/J RI DEFGRID1 loosescf d4 GCP(DFT/SV(P)) printgap
%output
    printlevel normal
end
* xyz 0 1
C 0.8454615753 1.292831369 -0.9867545394
C 1.4387349648 0.3077611863 0.0284418612
H 2.4539563647 0.0547065409 -0.2926056954
C 0.6165744424 -0.9983110459 0.0393723418
H 0.5554281553 -1.3630261809 1.0751343482
C -0.8240801572 -0.7599348979 -0.4517915745
H -0.8323722925 -0.8239179828 -1.553749161
C -1.2832938891 0.6581672904 -0.0892475915
H -2.3198005032 0.8168439271 -0.4393878131
O -0.518448521 1.6300286481 -0.7310078954
O -1.2417658158 0.8111776558 1.3093546684
O -1.6361890083 -1.7618602347 0.1019616195
O 1.2697489951 -1.9352365649 -0.77875271
O 1.5604952548 0.8698593283 1.3030703882
H 0.9312193112 0.8633080203 -1.9919404299
H 1.3879054455 2.2394750733 -0.9497101597
H -1.5186214882 1.7103125669 1.5262829383
H -2.5648319274 -1.5392817235 -0.0244099193
H 0.7748214006 -2.7620297305 -0.73999345
H 0.6647047299 0.9669139691 1.6665173006
*
