! pbe def2-sv(p) def2/J RI DEFGRID1 loosescf d4 GCP(DFT/SV(P)) printgap
%output
    printlevel normal
end
* xyz 0 1
C -2.3163453743 0.1985398663 -0.563262382
C -1.2760532298 0.5855096955 0.4873980586
C 0.0098954602 -0.1692659588 0.2398620713
O 0.1266002052 -1.365095793 0.2784358952
O 1.0088254506 0.6739126379 -0.0495300928
C 2.2885594808 0.118543134 -0.32558088
H -2.4571115537 -0.8794238859 -0.5642737094
H -3.2670543471 0.6782234818 -0.3452480188
H -1.9904388119 0.5069558701 -1.5540195114
H -1.6414529904 0.3096722765 1.4782689815
H -1.0726034782 1.6554592079 0.4612679188
H 2.9507955617 0.3139024541 0.5191104708
H 2.6741683392 0.605997539 -1.2198326912
H 2.1996969814 -0.9578984284 -0.4833600508
*
