! wb97x-v def2-tzvp def2/J RIJCOSX DEFGRID2 scfconv7 GCP(DFT/TZ) printgap
%output
    printlevel normal
end
* xyz 0 1
C 1.2662388719393136 -0.24127708691198127 -0.000928902932934116
C -0.01638450228874235 0.5683886226663801 -0.04919131301001029
O -1.1935365394845803 -0.24672494267319417 0.0384294920335855
H 1.3435024343475521 -0.7969580099232105 0.9405466024326944
H 1.3122146032226236 -0.9517359575686284 -0.8340520222836457
H 2.13918448049095 0.4151380935585563 -0.0732934536342848
H -0.06634755232452227 1.1379379065783939 -0.9872290955097203
H -0.03710090983818312 1.2900339007923733 0.7789973709213884
H -0.9166132986276774 -1.1633065503662416 0.12574534333220388
*
