! pbe def2-sv(p) def2/J RI DEFGRID1 loosescf d4 GCP(DFT/SV(P)) printgap
%output
    printlevel normal
end
* xyz 0 1
C 0.5893744745 1.7091074833 -0.071425863
C 1.3860654668 0.4090971448 -0.2429640532
H 1.6455263931 0.2666471139 -1.2979136288
C 0.5293542665 -0.7784641716 0.2192900679
H 0.3194614243 -0.6867286015 1.2984059573
C -0.8021131292 -0.7501442431 -0.5350360387
H -0.5889085899 -0.8045234082 -1.6162881143
C -1.4801899279 0.6022114778 -0.2631734109
H -2.3994627184 0.6711928788 -0.8595946525
O -0.664548389 1.6554583615 -0.7224701602
O -1.7407128914 0.7108281238 1.0996080556
O -1.6544977269 -1.7889170384 -0.1540829144
O 1.1724058093 -2.0065841734 -0.0384441275
O 2.614868732 0.4374851263 0.4435494522
H 1.1205405854 2.5504290444 -0.5186008283
H 0.4471042938 1.8988044576 1.0034678416
H -2.3296165049 1.4585646184 1.2525461798
H -1.1087145477 -2.5809584798 -0.0644866344
H 2.1185037089 -1.8744762782 0.1036922864
H 2.4495879362 0.6411581769 1.3727967744
*
