! pbe def2-sv(p) def2/J RI DEFGRID1 loosescf d4 GCP(DFT/SV(P)) printgap
%output
    printlevel normal
end
* xyz 0 1
C -1.7095504117 0.3642711355 -0.0154270002
C -0.6008555391 -0.6628968634 0.073496084
S 1.0734470177 0.0925148409 -0.0224241261
H -1.6620431858 0.9035621548 -0.9597649405
H -2.674522228 -0.1359014496 0.0460729471
H -1.6407379159 1.0791333401 0.8025618462
H -0.660917964 -1.3793822306 -0.7460171038
H -0.6393769486 -1.2033241378 1.0195517799
H 0.6654090251 1.3518145135 -0.1411229371
*
