! wb97x-v def2-tzvp def2/J RIJCOSX DEFGRID2 scfconv7 GCP(DFT/TZ) printgap
%output
    printlevel normal
end
* xyz 0 1
C 1.2751946431499273 -0.2485743996528151 0.01903037670285548
C -0.011603410743970971 0.5587572778018695 -0.033280179905314795
O -1.180402196102908 -0.2618752899319292 0.0652994904146039
H 1.3143319172675891 -0.8475704676581314 0.9331869054021364
H 1.3499204808434124 -0.9253769423227328 -0.8397973609662021
H 2.147722437919305 0.4130537215858845 -0.0026775970189246976
H -0.044483293627125095 1.170980452544303 -0.9481787099581782
H -0.06796937884003783 1.241958925626054 0.8199059214037293
H -1.160000065985281 -0.8894380683388605 -0.6656166925373919
*
