! pbe def2-sv(p) def2/J RI DEFGRID1 loosescf d4 GCP(DFT/SV(P)) printgap
%output
    printlevel normal
end
* xyz 0 1
C -2.4116848723 -0.0776341269 -4.8305e-06
C -1.8396476219 -1.3369929981 -8.8417e-06
C -0.4611428087 -1.4686135621 -1.45682e-05
C 0.3405775277 -0.3419985471 -1.38943e-05
C -0.2251479834 0.9355436158 -5.6979e-06
C -1.6100155759 1.0500451517 -2.2688e-06
O 0.5951815703 2.0142507119 8.921e-07
Cl 2.0596915788 -0.4956565477 1.65065e-05
H -3.4851858695 0.0329017265 -9.0398e-06
H -2.461805424 -2.2180351306 -1.584e-07
H 0.0006082436 -2.4430172429 3.6413e-06
H -2.0561115323 2.0357476568 -3.9389e-06
H 0.0733549147 2.825710364 1.17678e-05
*
