! pbe def2-sv(p) def2/J RI DEFGRID1 loosescf d4 GCP(DFT/SV(P)) printgap
%output
    printlevel normal
end
* xyz 0 1
C -3.5883497286 -0.5977289118 -0.2274532126
C -2.1491330112 -0.669608605 0.2720189504
C -1.2493803051 0.1861532178 -0.5959956347
I 0.8085753634 0.1237688756 0.0655872277
H -4.2323209165 -1.2124351864 0.39613506
H -3.9554301996 0.426087346 -0.1962792187
H -3.6582135928 -0.9565647985 -1.2522620914
H -1.8063349579 -1.7065726968 0.2514622369
H -2.1035595584 -0.3233174991 1.3070056706
H -1.5446200538 1.2322953937 -0.5656879067
H -1.2456465024 -0.1588899713 -1.6271381569
*
