! pbe def2-sv(p) def2/J RI DEFGRID1 loosescf d4 GCP(DFT/SV(P)) printgap
%output
    printlevel normal
end
* xyz 0 1
C 0.7214799612 0.6431023532 -0.0051836364
C -0.608980059 -0.0247911094 -0.4211210529
F -1.1691560069 0.6894754494 -1.4144696637
Cl -1.7132981055 -0.0445991576 0.9609374016
Cl -0.2857072383 -1.6623709692 -1.0073889492
F 1.5515275878 0.7138495211 -1.0516091249
F 0.5036548484 1.9008732615 0.3942880062
Cl 1.4860918854 -0.2731448434 1.301100114
*
