! wb97x-v def2-tzvp def2/J RIJCOSX DEFGRID2 scfconv7 GCP(DFT/TZ) printgap
%output
    printlevel normal
end
* xyz 0 1
C -2.5941156911555483 -0.6987200509640974 -0.00017544663022514735
C -2.5942355574402485 0.6982883180905031 -5.887327052910704e-05
C -1.3990019879861573 1.420662758226762 5.2459416210898077e-05
C -0.22054453563853782 0.6968401845783588 3.631937703320472e-05
C -0.22042530603227656 -0.6968625267834601 -6.848294120855559e-05
C -1.3987566888975407 -1.420888341666043 -0.00016972790655698524
C 1.1922790321118735 -1.1716471859220483 -8.117517926722621e-05
O 1.619676235997143 -2.303178063638603 -9.58476280345218e-05
N 1.962377457900064 0.00017539045878920754 1.4654625904211754e-05
C 1.1920830441579682 1.17186652955021 0.00010973888585032842
O 1.6192806505873478 2.3034713621436844 0.00021827959501277756
H -3.5404497257257175 -1.229455452210267 -0.00027902470290622384
H -3.5406635006453833 1.2288564670096704 -4.108769066268208e-05
H -1.386341965677367 2.5052344917909855 0.0001565349306944327
H -1.3859119230300476 -2.505457675510879 -0.00028677755423352956
H 2.970785538647914 0.0002468733510137478 0.0001196803749724352
*
