! pbe def2-sv(p) def2/J RI DEFGRID1 loosescf d4 GCP(DFT/SV(P)) printgap
%output
    printlevel normal
end
* xyz 0 1
C -1.9507986053 -0.1705717416 0.5037311655
C -1.1767231646 -0.1636177157 -0.8084378803
C 0.1096344886 0.6399436708 -0.7140442295
Cl 1.2675910725 -0.129725907 0.408147555
H -2.2254647456 0.8421827174 0.7905462438
H -2.8585582162 -0.7598322671 0.4042443907
H -1.3445441762 -0.6012330091 1.2964284866
H -0.9408181927 -1.1878613681 -1.1028415967
H -1.7892850577 0.2816790409 -1.5965699648
H -0.0771992554 1.6424577476 -0.3287481584
H 0.6119365569 0.7021018498 -1.6793880805
*
