! pbe def2-sv(p) def2/J RI DEFGRID1 loosescf d4 GCP(DFT/SV(P)) printgap
%output
    printlevel normal
end
* xyz 0 1
C -1.7760316808 0.6701435786 -7.3763e-05
C -0.4716576464 -0.1009750344 0.0004343695
O -0.4176886488 -1.3117658692 -0.0001507567
N 0.6422854456 0.6675245064 -0.0001332812
C 1.9602076627 0.070937103 5.26885e-05
H -1.622890531 1.7452850736 0.0155209906
H -2.3438431252 0.3964720267 -0.8864583131
H -2.3589121352 0.3726899616 0.8685912502
H 0.5707228016 1.6703285454 0.0016838061
H 2.7138382707 0.8530134428 -0.0081611874
H 2.0825202041 -0.5659024843 -0.8782564612
H 2.0890442133 -0.5534994092 0.886400046
*
