! wb97x-v def2-tzvp def2/J RIJCOSX DEFGRID2 scfconv7 GCP(DFT/TZ) printgap
%output
    printlevel normal
end
* xyz 0 1
C -2.2664742072764716 0.285495704965931 -0.6313422630024516
C -1.3029338324994422 0.5189332056118384 0.5400882690310864
C 0.010279781296807561 -0.17233380242027438 0.2729778457126019
O 0.17928021931770693 -1.3694947824026282 0.29526060416383426
O 0.9870097600538962 0.7142648762510915 -0.04059238685700324
C 2.2612491200761626 0.116543709850216 -0.36295287638692614
H -2.416776737239912 -0.784620099342289 -0.7938323886412118
H -3.2358440893384115 0.7449684037375905 -0.42224831057296874
H -1.873022875663783 0.7237117785870714 -1.5530543912674744
H -1.7192352273021816 0.08203626545595938 1.4529293249025321
H -1.1396134905669375 1.5867868770438966 0.702473737233668
H 2.6336607127241023 -0.46493210836628557 0.4841280846505535
H 2.9274385186296645 0.9505002125904061 -0.5825876025532085
H 2.1632740440740967 -0.5405575546455641 -1.230922527433058
*
