! wb97x-v def2-tzvp def2/J RIJCOSX DEFGRID2 scfconv7 GCP(DFT/TZ) printgap
%output
    printlevel normal
end
* xyz 0 1
C -0.7393582482008079 -1.8174632290818407 -4.01745480137271e-05
C 0.5969319548261829 -1.4352461541102173 2.151552264228214e-05
C 0.9087779722136963 -0.07102595735824012 6.834655952523756e-05
C -0.10407871405668366 0.8965888322500364 1.1363503531390015e-06
C -1.4347688069506803 0.48907846660463355 -6.937037767747445e-05
C -1.7543573716308525 -0.8704145530109236 -7.251038409960211e-05
O -2.4727121615132313 1.3709631297118436 -7.38723030122575e-05
C 2.2706975020096687 0.34829963266136177 0.0006542457839283286
N 3.3761015472397435 0.6933197412178809 -0.0006029353566321464
H -0.9950818936185547 -2.871695959540797 -1.909441101750024e-05
H 1.3924892737653447 -2.170227608774805 9.90361996951587e-05
H 0.1584903816359202 1.9503021946161254 7.002267249067197e-05
H -2.798663399812824 -1.162711254760749 -8.84109840199849e-05
H -2.1323839312931736 2.2730622987152533 -0.0002331980820624128
*
