! r2scan-3c def2/J RI DEFGRID2 scfconv6 printgap
%output
    printlevel normal
end
* xyz 0 1
C -1.4315895521 -0.9970124669 -0.0002977588
S 2.3627e-06 0.1190280616 -6.5238e-06
O -0.0023166619 0.8584519852 1.2309586077
O -0.002098919 0.8589042875 -1.2307000285
C 1.4366344768 -1.0032420958 6.6198e-05
H -1.3926425671 -1.6010370372 -0.8971385395
H -1.3926812278 -1.6013219013 0.8963545202
H -2.3233729401 -0.3824042648 -0.0003522229
H 2.0112578587 -0.8063204797 0.8955820799
H 1.0857284767 -2.0266719252 -0.0099152048
H 2.0216085108 -0.7929320094 -0.8856683254
*
