! wb97x-v def2-tzvp def2/J RIJCOSX DEFGRID2 scfconv7 GCP(DFT/TZ) printgap
%output
    printlevel normal
end
* xyz 0 1
C -2.471881371425012 0.6958353650476558 1.378780661863769e-05
C -2.4719338248499416 -0.6956702982938453 -6.659115772636772e-05
C -1.2701353317281765 -1.3916435883539826 -9.958231170900938e-05
C -0.06258038586424207 -0.6984313032467064 -4.359041702936878e-05
C -0.06252816581808798 0.6984170559905685 5.4234575618818774e-05
C -1.2700321853314187 1.3917202451648973 7.71204092469707e-05
Cl 1.4284250862168753 1.5981004945980597 0.0001484506078530481
Cl 1.42830430815511 -1.5982269858975975 -0.00011054120631866224
H -3.4065870781843053 1.2457660833277484 3.102137476445035e-05
H -3.406679712159748 -1.2455318221618914 -0.00011028850927776998
H -1.2534309291846903 -2.475297707420089 -0.00017322728170500988
H -1.2532467049139824 2.4753733196759207 0.00014415625335338007
*
