! wb97x-v def2-tzvp def2/J RIJCOSX DEFGRID2 scfconv7 GCP(DFT/TZ) printgap
%output
    printlevel normal
end
* xyz 0 1
C 1.4048465316038226 0.0007275328338157546 -0.005015871794810263
N -0.10108237745743269 1.2080689033427594e-05 -0.008395698697675683
O -0.6549192297153376 -1.0879830513283035 0.0053569877794844055
O -0.6560437588691242 1.08714395922366 0.0053414297207562515
H 1.7112970879061324 0.0018492013682794293 1.0436711756139467
H 1.7471262725996215 0.9085274002772389 -0.4992111003918343
H 1.7481220952214653 -0.9075650651301131 -0.49765999085222856
*
