! pbe def2-sv(p) def2/J RI DEFGRID1 loosescf d4 GCP(DFT/SV(P)) printgap
%output
    printlevel normal
end
* xyz 0 1
C -1.8620884509 -0.0087889151 -1.7677e-06
C -1.1612437132 -1.2015815614 -1.4254e-06
C 0.2223197183 -1.1987278292 -1.422e-07
C 0.9144171942 0.0061520929 2.2645e-06
C 0.2099308271 1.2061043374 9.58e-08
C -1.1709465268 1.1922464718 -2.8092e-06
O 2.2747871051 0.0581416532 -8.18e-07
H -2.9414274304 -0.0144629265 1.94253e-05
H -1.691100659 -2.142775933 1.18355e-05
H 0.7699073697 -2.132720883 6.101e-07
H 0.763517171 2.1315801121 4.1723e-06
H -1.7120209314 2.1267720908 1.78803e-05
H 2.6357363719 -0.836570032 4.158e-06
*
