! r2scan-3c def2/J RI DEFGRID2 scfconv6 printgap
%output
    printlevel normal
end
* xyz 0 1
C -2.3028583345 0.2159044 0.5814887417
C -1.2823828465 0.5710786647 -0.499886942
C 0.0092480426 -0.1716823423 -0.2464799586
O 0.1423157837 -1.3653809639 -0.2959141486
O 1.0004809455 0.6773172983 0.0528416571
C 2.2741961375 0.1142938616 0.3385256819
H -1.9590633121 0.5545153152 1.5561043389
H -3.257562244 0.6889143848 0.3665691028
H -2.4437172274 -0.8614095624 0.6178171214
H -1.0823152237 1.6419466095 -0.5102110957
H -1.6640012459 0.2619215978 -1.4744600856
H 3.0172108006 0.8604363087 0.0659006851
H 2.4161658004 -0.8029908897 -0.236022139
H 2.3458610709 -0.1154884781 1.403501022
*
