! pbe def2-sv(p) def2/J RI DEFGRID1 loosescf d4 GCP(DFT/SV(P)) printgap
%output
    printlevel normal
end
* xyz 0 1
C 0.4684658932 0.7259809721 -1.67824e-05
C 0.3944875881 -0.7686891929 3.55299e-05
C -0.8629683933 0.0427099915 -1.29387e-05
H 0.7891431052 1.2226567215 -0.9030422928
H 0.7889220393 1.2228325982 0.9030246762
H 0.6644468204 -1.2946748486 -0.9030562774
H 0.664480285 -1.2946768757 0.9030232374
H -1.4533917036 0.0717543526 -0.9030543719
H -1.4534228415 0.0720869508 0.9030358051
*
