! wb97x-v def2-tzvp def2/J RIJCOSX DEFGRID2 scfconv7 GCP(DFT/TZ) printgap
%output
    printlevel normal
end
* xyz 0 1
C -2.4253723288154925 -0.7058059271830049 2.444161319345148e-07
C -2.425371743753665 0.7058096225759753 -3.7655569736466555e-06
C -1.239641321882745 1.399177883773627 -2.212868311267532e-06
C 3.004636398633899e-07 0.7154298416766272 3.9232970852873215e-08
C 1.239642377262587 1.3991767251730287 -4.68005452793184e-06
C 2.4253723862111216 0.7058075025138796 -1.3613399980786845e-06
C 2.4253719301192582 -0.7058078957587789 8.213971490836754e-06
C 1.2396413393451324 -1.3991762598321478 1.1317302947705515e-05
C -2.3834280213005995e-07 -0.7154281946689374 5.4326440068201854e-06
C -1.2396424591272752 -1.399175270165939 4.390579432768264e-06
H -3.369209620095288 -1.241633050092238 -5.6001514597445136e-06
H -3.369208596238072 1.2416374452090264 -3.486265676939768e-06
H -1.2367328103397197 2.485632596306572 -2.1651462002245087e-06
H 1.2367353569607913 2.485631437460218 -1.200847191785645e-05
H 3.369209386549218 1.2416350811931463 -7.973333678894651e-06
H 3.3692086007559436 -1.2416360906045496 1.2623532203228969e-05
H 1.2367331908040213 -2.4856310809948443 1.952096012381834e-05
H -1.2367352107190177 -2.485630096990408 4.454802813270344e-06
*
