! wb97x-v def2-tzvp def2/J RIJCOSX DEFGRID2 scfconv7 GCP(DFT/TZ) printgap
%output
    printlevel normal
end
* xyz 0 1
C -1.7244355250721715 0.41031039119861795 0.024388708461092035
C -0.6175021507306675 -0.6322248008924943 -0.04358312242666721
S 0.9927130230044938 0.22822517241059578 -0.3472188421829663
H -1.790089590989301 0.9773075000187348 -0.9089145669358958
H -2.6880957153452667 -0.08017610432098098 0.19273963368538305
H -1.5536534486338827 1.1153237269483658 0.8429654438613938
H -0.8018015544004201 -1.33720282387337 -0.8586102277184712
H -0.5511006921455143 -1.186997911317101 0.8962086624300124
H 1.7609078662356679 -0.8749575486125588 -0.38722369140597984
*
