! wb97x-v def2-tzvp def2/J RIJCOSX DEFGRID2 scfconv7 GCP(DFT/TZ) printgap
%output
    printlevel normal
end
* xyz 0 1
S 3.6118514254791247e-09 -0.06161448275823099 -2.3495468153748e-12
H -0.9702588732512698 0.8678547775780427 -1.7542806628642238e-09
H 0.9702597700229538 0.867853850938491 4.025186452961355e-10
*
