! pbe def2-sv(p) def2/J RI DEFGRID1 loosescf d4 GCP(DFT/SV(P)) printgap
%output
    printlevel normal
end
* xyz 0 1
C 1.1941864984 -1.2072296278 -0.0001001621
C 1.876243124 5.64286e-05 4.08494e-05
C 1.1941253956 1.2073348764 5.168e-06
C -0.1920716018 1.2014410499 -3.01149e-05
C -0.9011024369 2.26553e-05 5.87783e-05
C -0.191989845 -1.2013481619 9.80051e-05
Cl -1.0424248741 -2.6912239736 7.05079e-05
Cl -2.6168085424 -9.26812e-05 -0.0001171878
Cl -1.0424988636 2.6912299021 6.14547e-05
Cl 3.5940338027 -1.22398e-05 -3.55155e-05
H 1.729298516 -2.1426383984 -0.000341646
H 1.7291469722 2.1428168758 0.0002069501
*
