! r2scan-3c def2/J RI DEFGRID2 scfconv6 printgap
%output
    printlevel normal
end
* xyz 0 1
C -0.7352205938 -1.8167702808 1.70491e-05
C 0.5930958818 -1.4296684244 2.37243e-05
C 0.9043789103 -0.0714384569 -5.75146e-05
C -0.1062391404 0.8890605946 -8.9327e-06
C -1.4341517013 0.4867778605 -3.4826e-06
C -1.7445122496 -0.8731095409 -2.66941e-05
O -2.457822746 1.3749325189 4.81221e-05
C 2.2558040549 0.3457051164 -2.25306e-05
N 3.3495350309 0.6889235359 3.29166e-05
H -0.9872434125 -2.8662160752 -1.30056e-05
H 1.3859033619 -2.1616943552 6.18725e-05
H 0.151038314 1.9402427759 3.70525e-05
H -2.7830206005 -1.1627417506 -4.76077e-05
H -2.1194604048 2.2788257369 -0.0003255839
*
