! wb97x-v def2-tzvp def2/J RIJCOSX DEFGRID2 scfconv7 GCP(DFT/TZ) printgap
%output
    printlevel normal
end
* xyz 0 1
C -1.5449027643453306 -0.6417083310770114 1.3796295716359834
C -0.9973645822949019 -0.17695793537708734 0.019795997972974433
C -1.730673201487649 1.103880486724018 -0.4181679196919029
C -1.1872743427302739 -1.2755505563832255 -1.028512169859179
C 0.46608230565375414 0.2081311329610219 0.23178140483338766
O 0.8410872947906547 1.0101373661558342 1.057167614412797
O 1.3119152214010792 -0.4322992573631331 -0.6086322628357805
C 2.7030477162507394 -0.08147748525503785 -0.44638042677958667
H -2.611782205612701 -0.8685333346993555 1.2860340579250698
H -1.0320012215980614 -1.5470108080255571 1.7203835567434937
H -1.413016477917196 0.13638551368430113 2.135101462765902
H -2.7985942648172286 0.8916624213485178 -0.5330394202731836
H -1.3502999976574883 1.4674647653374286 -1.378551627134456
H -1.6054104922503878 1.8934298415591224 0.3270402601319076
H -0.8159735914044657 -0.9654870135885446 -2.008491782178831
H -0.6678252278488825 -2.1947109145421586 -0.7445642044423488
H -2.254780297544761 -1.5011904989668716 -1.122005865175767
H 3.044243720703501 -0.33619688032926975 0.5605313090059667
H 2.8468995296760684 0.9897244673416982 -0.610357324218731
H 3.2390218835514935 -0.664244579128719 -1.1958066661699542
*
