! r2scan-3c def2/J RI DEFGRID2 scfconv6 printgap
%output
    printlevel normal
end
* xyz 0 1
C -2.1922723361 0.3928297062 -0.674624094
C -1.3180334693 0.4428253845 0.5799159847
C 0.0014666672 -0.2351839486 0.2936972685
O 0.193642112 -1.4211873605 0.3326707323
O 0.9315485247 0.6641832297 -0.0509698873
C 2.2225198123 0.1793225827 -0.3957118633
H -2.347980934 -0.6385389497 -0.9816639586
H -3.1590688704 0.8474283212 -0.4738145098
H -1.7169078798 0.9323810829 -1.4904726254
H -1.8108110993 -0.0905721919 1.3931367912
H -1.1341629902 1.4764700361 0.8709407392
H 2.5799494022 0.7758059859 -1.2332466132
H 2.164082091 -0.8756121653 -0.6701530314
H 2.8925124943 0.2966278239 0.4578715807
*
