! wb97x-v def2-tzvp def2/J RIJCOSX DEFGRID2 scfconv7 GCP(DFT/TZ) printgap
%output
    printlevel normal
end
* xyz 0 1
C -2.5998934681265444 1.410582858725195 -5.164036655648055e-05
C -1.6162970121912899 0.2890863861654811 -3.680015252641536e-05
C -1.8858094397593639 -1.0547958693670676 -3.42412032771804e-05
N -0.7025469941229151 -1.7735058995505388 7.42055516251206e-05
C 0.3578648903601041 -0.8977440324842244 -8.274465971206127e-06
C -0.1861633776663585 0.41459320394875077 -1.6216525022945118e-05
C 0.6876878367268575 1.5093342997842314 3.402870832640931e-05
C 2.054400891115567 1.2776115493136782 4.484808391981525e-05
C 2.5694284519423753 -0.030654718795431482 1.0179205140289667e-05
C 1.7304560529609962 -1.135856974752171 -7.067939856503861e-06
H -2.4756298478446483 2.0490960602060824 0.8823028574988859
H -2.4756481310476555 2.0490350320702393 -0.882453969894901
H -3.62664927935653 1.0353508755435907 -2.8192073503292906e-05
H -2.8394037369204974 -1.564253906798357 -2.4359187127630823e-05
H -0.6318182330171711 -2.7749376649598285 -0.00043035871810946663
H 0.29888437942509916 2.52336524859789 6.239328692745601e-05
H 2.742568693104904 2.116625621811303 8.239127531894546e-05
H 3.644386960836633 -0.17898271227756174 1.042277366262699e-05
H 2.1312508030273136 -2.144861155597228 -1.0902877973922466e-05
*
