! pbe def2-sv(p) def2/J RI DEFGRID1 loosescf d4 GCP(DFT/SV(P)) printgap
%output
    printlevel normal
end
* xyz 0 1
C -1.7702257114 0.6739910564 0.0002740955
C -0.4725604723 -0.1074108246 -0.0004752463
O -0.4344816952 -1.3190740669 -8.4808e-06
N 0.6450201077 0.6569057754 -0.0004063097
C 1.9710558109 0.089507115 0.0002672647
H -2.3358744447 0.4099940886 0.8909988038
H -1.6102731906 1.747979025 -0.0231713774
H -2.3590992689 0.374393011 -0.8635873013
H 0.5694495229 1.6608429045 -0.0008443725
H 2.5248117001 0.3950983762 -0.8897424328
H 1.857967095 -0.993346464 0.0012887199
H 2.5243617739 0.3965524825 0.8900511675
*
