! pbe def2-sv(p) def2/J RI DEFGRID1 loosescf d4 GCP(DFT/SV(P)) printgap
%output
    printlevel normal
end
* xyz 0 1
C -0.622213953 0.4310273462 0.9726463811
C 0.6222230963 -0.4311789796 0.9725017276
Cl 1.6780983998 -0.0265889574 -0.4081691898
Cl -1.678104073 0.0266512924 -0.4081685601
H -0.3715336691 1.4881496616 0.8875163689
H -1.2007868614 0.2538241253 1.8800170939
H 1.2008472245 -0.254048323 1.8799100876
H 0.3715639013 -1.488311113 0.8872804451
*
