! wb97x-v def2-tzvp def2/J RIJCOSX DEFGRID2 scfconv7 GCP(DFT/TZ) printgap
%output
    printlevel normal
end
* xyz 0 1
C -1.7795256161642805 0.6785947803968578 0.0003777208750696976
C -0.4768658224687016 -0.09701965329488772 -0.000730849271301362
O -0.4581526656342251 -1.3195230316327056 0.00016728076574768958
N 0.6572673664160803 0.6656885983081643 -0.0013022917808599244
C 1.9895348640485906 0.08685106786341176 0.0004019330780199611
H -2.344489166990289 0.4006490350872942 0.8939321257083234
H -1.655655664235686 1.7644630364964706 -0.021901866372833634
H -2.366827289393763 0.36595713432988314 -0.8666103642428722
H 0.5642309536413163 1.6670342591340874 -0.0022777151516001812
H 2.553247965245642 0.38473173676098116 -0.8911304525198409
H 1.8755261568752675 -0.998842666685074 0.0016129870885610628
H 2.5518609606172458 0.3868486900995666 0.8921054759220937
*
