! r2scan-3c def2/J RI DEFGRID2 scfconv6 printgap
%output
    printlevel normal
end
* xyz 0 1
C 0.6057246888 1.4384149405 -0.0027721999
C 1.5286298149 0.1978065497 0.0842487954
H 2.4106920629 0.3324500562 -0.5504574683
C 0.752270931 -1.038834957 -0.4248776851
H 1.2313186197 -1.939883636 -0.0298829475
C -0.6934042068 -0.9643374771 0.1077057929
H -1.2504258735 -1.8603990351 -0.2033934247
C -1.3762159313 0.2770005361 -0.5192576292
H -1.9123363536 -0.0118184627 -1.436599708
O -0.4489139194 1.2420798092 -0.9358204371
O -2.2723694429 0.7917109674 0.4268184587
O -0.6502751761 -0.8865180349 1.5103239418
O 0.7818239503 -1.155262105 -1.8205668932
O 2.0091726889 0.0114266357 1.3842764781
H 1.1460397081 2.3182680004 -0.3512355588
H 0.1937588254 1.6463602031 0.9925117277
H -2.6380483381 1.6168366198 0.0890656149
H -1.4700291404 -0.4596518763 1.7976238701
H 0.4993182917 -0.3136117368 -2.2026734297
H 1.2694139841 -0.3111872471 1.9223990365
*
