! pbe def2-sv(p) def2/J RI DEFGRID1 loosescf d4 GCP(DFT/SV(P)) printgap
%output
    printlevel normal
end
* xyz 0 1
C 0.6104905149 1.4543952686 -0.025845806
C 1.5295353075 0.2136651254 0.0790560835
H 2.4224674787 0.3382350415 -0.5409034672
C 0.7574898904 -1.0231524649 -0.4459288995
H 1.2566003226 -1.9260429473 -0.0739436512
C -0.6903525399 -0.9719853367 0.0890289636
H -1.2409059827 -1.8618224887 -0.2362485109
C -1.3979083515 0.2870174654 -0.489173661
H -1.9618993558 0.0263752575 -1.3918806361
O -0.4489056807 1.2310470708 -0.93758747
O -2.3074286412 0.8202047635 0.4036217243
O -0.6971938745 -0.8767736252 1.5064317397
O 0.7818664959 -1.1153795748 -1.8417668074
O 1.9994939214 0.0214102199 1.3855597954
H 1.150144725 2.3215778682 -0.4067622241
H 0.2189510364 1.7012407058 0.9699028886
H -1.9484355786 0.7394099556 1.2993509248
H -0.5598983416 -1.753488609 1.8774450702
H 0.4583126765 -0.2784425277 -2.2040202968
H 1.2308774306 -0.1076508445 1.9604058438
*
