! r2scan-3c def2/J RI DEFGRID2 scfconv6 printgap
%output
    printlevel normal
end
* xyz 0 1
C 1.3801580285 0.5251329019 4.18859e-05
O 0.5854243676 -0.6585048637 6.2788e-06
C -0.7239716987 -0.4817502666 -9.76745e-05
O -1.3005287614 0.5645728014 4.87089e-05
H 1.1580157652 1.1276498924 0.8826333747
H 1.1724802779 1.1179498111 -0.8926083519
H 2.416235002 0.198025735 0.0100276154
H -1.2148457103 -1.4695329639 -0.0002606877
*
