! r2scan-3c def2/J RI DEFGRID2 scfconv6 printgap
%output
    printlevel normal
end
* xyz 0 1
C -1.7669937969 0.6801461592 0.0007847213
C -0.4741319844 -0.112207125 -0.0004453341
O -0.4213977657 -1.3219338401 -0.0003445684
N 0.6363498535 0.6625634475 -0.0017436461
C 1.9601841829 0.0803868879 0.0010919232
H -1.8285442419 1.2927334961 0.897721877
H -1.8117382902 1.3283370148 -0.8716004178
H -2.6068170748 -0.0076045444 -0.020099855
H 0.549592833 1.6644340669 0.0018816541
H 2.0942735578 -0.5430945094 0.8873757605
H 2.7056230871 0.8702927772 -0.0050932898
H 2.0915177155 -0.5543212494 -0.8775414722
*
