! r2scan-3c def2/J RI DEFGRID2 scfconv6 printgap
%output
    printlevel normal
end
* xyz 0 1
C 1.4367631194 0.9298488228 -0.3065122732
C 0.7672530915 -0.3704019321 0.0667529405
O 1.4027698582 -1.3823132561 0.2539182083
C -0.7083443455 -0.3647341429 0.2270090373
C -1.4845239945 0.8826251595 0.5680311771
C -1.6137403193 0.2930969211 -0.7900426601
H 0.8971297936 1.4541109408 -1.0893773267
H 1.4752763415 1.5679981964 0.5751720439
H 2.4546054557 0.7295306441 -0.6303699381
H -1.066611182 -1.2978627066 0.6468332204
H -2.3069823033 0.7767512462 1.2588197327
H -0.9416263543 1.8078009185 0.6791953195
H -2.5225257122 -0.2288606806 -1.047620809
H -1.1589636005 0.8020901143 -1.6257262191
*
