! wb97x-v def2-tzvp def2/J RIJCOSX DEFGRID2 scfconv7 GCP(DFT/TZ) printgap
%output
    printlevel normal
end
* xyz 0 1
C -1.2566070369296927 -0.1681550039732736 7.538424122992266e-06
C 0.12580505916637677 0.4158074313335387 7.748440147882564e-05
O 1.1450386019161054 -0.23191112612162496 6.155769863308481e-05
H -1.8051914479871745 0.1950167646410804 0.8779083750838333
H -1.8048021184218273 0.1943574435455602 -0.8784173968311074
H -1.2205761809165525 -1.2584451237807375 0.0003912791756799475
H 0.16591292853853645 1.5315320128398031 -0.00014597903841921363
*
