! wb97x-v def2-tzvp def2/J RIJCOSX DEFGRID2 scfconv7 GCP(DFT/TZ) printgap
%output
    printlevel normal
end
* xyz 0 1
C -2.4948398370659253 -0.06851373219606227 -0.0636101783846257
C -1.231750919292122 0.77253466950017 0.051725625742322076
C 0.02572822733728195 -0.05939955933318391 -0.02129145839412691
O 0.07263721099361667 -1.2657891608149177 -0.07519576464548441
O 1.126404897250267 0.732891818414222 -0.01075187890286879
C 2.382496047611823 0.023969394076692536 -0.06521548298057345
H -2.51401239102222 -0.6145159204013477 -1.0102957341616676
H -2.5462258054316234 -0.8062240649293654 0.740680423025112
H -3.3824443483214224 0.5679857205818383 -0.011182127759545319
H -1.203383061225847 1.3252499344852118 0.9990967322675001
H -1.1769220132025597 1.5349295720501013 -0.7337927494719368
H 2.443903015644694 -0.5729057850763943 -0.9790459975663538
H 2.4860605447622692 -0.6363786082187005 0.7999077358582846
H 3.152561225383392 0.7950985394311154 -0.05578688067319236
*
