! pbe def2-sv(p) def2/J RI DEFGRID1 loosescf d4 GCP(DFT/SV(P)) printgap
%output
    printlevel normal
end
* xyz 0 1
C -2.4625425123 -0.0159327598 0.2630804156
C -1.2364195542 0.738091875 -0.2359346966
C 0.019042997 -0.0936067967 -0.1025326861
O 0.0722496785 -1.2934264143 -0.1302122321
O 1.0965220912 0.6921014658 0.040531008
C 2.3519625504 0.0332960984 0.1397983232
H -2.5252494649 -0.9836236657 -0.2274197141
H -2.3965692858 -0.182011764 1.3353715687
H -3.3670043933 0.5484116015 0.052126586
H -1.0925876031 1.6769154625 0.2991190891
H -1.3497586991 0.9717961224 -1.2980354964
H 3.0653760264 0.7817088674 0.4748380586
H 2.6469196236 -0.3643930843 -0.833329253
H 2.2908637753 -0.7905268786 0.8533475926
*
