! wb97x-v def2-tzvp def2/J RIJCOSX DEFGRID2 scfconv7 GCP(DFT/TZ) printgap
%output
    printlevel normal
end
* xyz 0 1
C -1.4196148783652978 -1.0614592182661886 1.1107966810033734
C -1.0107955047023278 -0.08006482248114344 -0.004817267825132343
C -1.477813856774481 1.334934596490896 0.34621733781606684
C -1.6317079734987514 -0.5291694938278325 -1.336120333371756
C 0.5070588574200424 -0.1957250956370101 -0.13805854637075143
O 1.076830678026863 -1.1641339162541857 -0.5880916313515616
O 1.1629513698366782 0.8893084408801722 0.33539223397025747
C 2.602406119241647 0.8000943875885794 0.2702688492442064
H -2.5086894177567616 -1.052268421205386 1.2234787432815097
H -1.099984063366794 -2.0778320143150424 0.8659997877877414
H -0.9748476556591328 -0.7755917752932648 2.069643109283415
H -2.571467808819979 1.3485445745406617 0.400774421212203
H -1.1657188766667081 2.057983534177434 -0.4126096614864843
H -1.0825386025109078 1.6632397992621613 1.3103368978696799
H -1.3556616667784862 0.15219311400343882 -2.1474253932865315
H -1.2951611711839823 -1.5338929209897283 -1.600852166640023
H -2.7228499723078348 -0.531195150767905 -1.2482821639071224
H 2.9282209394721725 0.6529390994748279 -0.7624438262333976
H 2.958929308042936 -0.03527600245410676 0.8786398011841181
H 2.9703990083494283 1.7484927592850212 0.661697537505159
*
