! wb97x-v def2-tzvp def2/J RIJCOSX DEFGRID2 scfconv7 GCP(DFT/TZ) printgap
%output
    printlevel normal
end
* xyz 0 1
C 1.4043454672429432 -0.0006212865090890128 -4.4465527897404936e-05
C 0.6939141433175331 -1.1952469176522138 -7.872774883395138e-05
C -0.6972397622359875 -1.1406551144417745 -0.00012576680232561236
N -1.3937423363812496 0.0006091094261191593 -6.262367462445339e-05
C -0.6962378014464942 1.141260116110973 -5.201965399943018e-06
C 0.694964608987435 1.19462927199724 -3.438942499895616e-05
H 2.489978917131591 -0.0010996877539630415 -5.352068191124612e-05
H 1.2048172927183831 -2.1525599724927007 -8.363331925239183e-05
H -1.2819489211831834 -2.0595677093030513 -4.1494146815059146e-05
H -1.2801369305493078 2.060686939880915 -7.597591702618606e-05
H 1.2067099329815183 2.15149301988457 -3.178512382869654e-05
*
