! r2scan-3c def2/J RI DEFGRID2 scfconv6 printgap
%output
    printlevel normal
end
* xyz 0 1
C -1.2745268045 0.2646847943 3.4042e-06
C 0.0125865165 -0.5653565102 -4.9204e-06
N 1.2384913859 0.2129495236 -4.2925e-06
H -2.1452476583 -0.3859060236 0.0005914964
H -1.317584844 0.9002552808 0.8834201851
H -1.3181542511 0.8994971387 -0.8839204388
H 0.0337314969 -1.2079179354 -0.8845851135
H 0.0338022375 -1.2080893425 0.8844654284
H 1.270278931 0.8130029993 -0.8182184619
H 1.2703270832 0.8128783782 0.8183246253
*
