! wb97x-v def2-tzvp def2/J RIJCOSX DEFGRID2 scfconv7 GCP(DFT/TZ) printgap
%output
    printlevel normal
end
* xyz 0 1
C 0.23901997778328324 0.020815940822186536 0.030184079908130008
N -1.392102518574757 0.011141873235328711 -0.21616284252247112
O -1.8664295882646678 0.9789773982710837 -0.7526458761236777
O -1.9412781428735595 -0.9897573157844718 0.17205625099587793
Cl 0.8712947716291781 -1.353860883108765 -0.8896162000094054
Cl 0.9052989102860864 1.5418733308865415 -0.5353281273971124
Cl 0.47390580907405966 -0.19074241550444923 1.7706181104013214
*
