! wb97x-v def2-tzvp def2/J RIJCOSX DEFGRID2 scfconv7 GCP(DFT/TZ) printgap
%output
    printlevel normal
end
* xyz 0 1
C -0.6072330107128998 0.443372439843494 1.2738468364841264
C 0.6073516841273162 -0.4430292724685164 1.2739912957581834
Br 1.830460703534034 -0.0637798962224485 -0.22096359812127625
Br -1.8304009473063885 0.06352338145083707 -0.22090374388526487
H -0.3497331643098824 1.4991981461755601 1.1965742421127108
H -1.1884117744588631 0.26519727914744534 2.1820182125682686
H 1.1885887623474753 -0.26446319964627746 2.1820485064351094
H 0.3498360822359987 -1.4988855308029136 1.1971997672956276
*
