! pbe def2-sv(p) def2/J RI DEFGRID1 loosescf d4 GCP(DFT/SV(P)) printgap
%output
    printlevel normal
end
* xyz 0 1
C -2.5874004778 0.5780666948 1.70413e-05
C -1.228844358 -0.0626035196 6.17911e-05
C -1.1361068246 -1.4486934287 -5.19875e-05
C 0.0927345611 -2.0820845345 1.78076e-05
C 1.2519082411 -1.3343382378 8.02402e-05
C 1.1749202181 0.0525706997 1.14565e-05
C -0.0629267973 0.7043182237 0.0001337116
C -0.0865536017 2.2114814682 -1.32804e-05
O 2.3528451859 0.7401079368 -7.6412e-05
H -2.7247636205 1.2008385555 0.8833870667
H -2.7247964577 1.2006157572 -0.8835005642
H -3.3613659486 -0.1850325754 0.000158497
H -2.0410086192 -2.0384708199 -0.0002982813
H 0.1472595177 -3.1602406777 -0.0001624275
H 2.2261117571 -1.7962042382 9.47993e-05
H 0.4169917857 2.6065201335 0.8852787607
H 0.4112375805 2.6061145842 -0.8887566019
H -1.1020519219 2.5901171793 0.0032575653
H 2.1758626239 1.6878194849 -0.0013058657
*
