! wb97x-v def2-tzvp def2/J RIJCOSX DEFGRID2 scfconv7 GCP(DFT/TZ) printgap
%output
    printlevel normal
end
* xyz 0 1
C -2.495459834988654 -0.054832088384879754 0.1419118207535014
C -1.2342712258392448 0.7561877849707539 -0.12088963047726999
C 0.023219542736537785 -0.06380800485419383 0.039043215070964275
O 0.06970508007370488 -1.2585532196220386 0.21467697194118796
O 1.1240730193623576 0.7232892285170147 -0.049248443273610706
C 2.3791419837953516 0.02410197763934466 0.07130357999081227
H -2.5646774727624715 -0.9011313629301476 -0.5449611374585306
H -2.493725569394566 -0.45708624070853815 1.1577965573426723
H -3.3830155615776385 0.5705613987467157 0.01730470084181507
H -1.1605267281078513 1.6238527601186201 0.5444180961829747
H -1.2273093952902212 1.1652435729868784 -1.1392656157670742
H 3.1497610158826537 0.7911589067513554 -0.006128634977655367
H 2.485577292453314 -0.7117949848615603 -0.7303370714060331
H 2.4402960898537156 -0.4884126548734785 1.0350914514905676
*
