! wb97x-v def2-tzvp def2/J RIJCOSX DEFGRID2 scfconv7 GCP(DFT/TZ) printgap
%output
    printlevel normal
end
* xyz 0 1
C 2.0322244153263163 0.7620246018100393 -0.0001293019771321635
C 0.7778833913175504 -0.07872505015836485 -6.820362572845017e-05
O 0.814233188927068 -1.296378056905469 0.0005397540495678364
C -0.5109762037332424 0.663913371964703 -0.0005114376657547927
C -1.674241376034358 0.02311401511651735 -0.7418478311988786
C -1.6740653054974757 0.024247968824608696 0.7421582150930993
H 2.0426012522170747 1.4152348516777296 -0.8803429985552347
H 2.041814502061768 1.4167800365981174 0.8789418546925977
H 2.915675082732971 0.12339627299603308 0.0007954693183255916
H -0.4554348300514177 1.7478263839527253 -0.0012967547028098104
H -2.3457015688501164 0.6944372821545488 -1.2649883426953272
H -1.442679037176422 -0.9134819697357109 -1.2371956818387726
H -2.3453850296162924 0.6963710000728607 1.2644535485627937
H -1.4423862124137141 -0.9115859214770607 1.2388897293664611
*
