! wb97x-v def2-tzvp def2/J RIJCOSX DEFGRID2 scfconv7 GCP(DFT/TZ) printgap
%output
    printlevel normal
end
* xyz 0 1
C -1.922921160155508 -0.5396288977967284 -0.08916709567638897
C -0.9009972926645219 0.5333196028800317 -0.4410856915721682
S 0.6493080681396721 0.4573475286754018 0.5421866538366302
C 1.4111940632148563 -1.0327901089297105 -0.19270032191300546
H -1.5340393769831877 -1.5431179931114025 -0.28323575557778075
H -2.1981154846580697 -0.4812856735588253 0.9670918345826266
H -2.8294624192809965 -0.41315593511484927 -0.6922578345086194
H -1.3074981183441599 1.530752542390278 -0.24348019676275465
H -0.6358292958903764 0.49807941321893684 -1.504245387767195
H 2.38729551028973 -1.1568465137787218 0.2824256561946391
H 1.5581961673885647 -0.9022721523845285 -1.2691668152711808
H 0.8165486183209066 -1.930266489290473 -0.002968021653577529
*
