! wb97x-v def2-tzvp def2/J RIJCOSX DEFGRID2 scfconv7 GCP(DFT/TZ) printgap
%output
    printlevel normal
end
* xyz 0 1
C -0.44849638610954046 0.6027929190720345 0.00012156472342485304
C 0.44843977559530834 -0.60271121250757 0.00012218927730284638
Br 2.3280063004568894 0.029754805280525723 7.270841202807207e-05
Br -2.328059219356503 -0.02967948814777162 8.428761343467734e-05
H -0.33101910399992496 1.211109914500404 -0.8950451416790797
H -0.331045311197197 1.2110893130662461 0.8953040633175692
H 0.33099011085686475 -1.2110074178641663 0.8953062882149568
H 0.3309575692437645 -1.211031127762858 -0.8950403042297229
*
