! r2scan-3c def2/J RI DEFGRID2 scfconv6 printgap
%output
    printlevel normal
end
* xyz 0 1
C 1.8353162298 -1.5159673834 -0.000446933
C 0.5783275586 -0.6977206363 -0.0003518105
C -0.6387056058 -1.3802728564 0.0003319903
C -1.8255372368 -0.6755695294 0.0006514769
N -1.8733858608 0.6478189768 -0.0002268899
C -0.7269034763 1.2957391614 -0.0008083857
C 0.5343784537 0.6971613115 -0.0004332128
C 1.7317464803 1.6008386837 0.0009733248
H 2.7349403973 -0.9105429553 -0.0103893146
H 1.8585721198 -2.1509882266 0.8845967432
H 1.8489099294 -2.1656929509 -0.8749213343
H -0.6458975108 -2.4604544892 0.000520856
H -2.7819615773 -1.1815006214 0.0009059044
H -0.8063858238 2.3763355957 -0.0014543263
H 1.7105793258 2.2377533213 0.8846442612
H 2.6705970917 1.0576268399 -0.0048704642
H 1.7052288901 2.2480861963 -0.8748836011
*
