! pbe def2-sv(p) def2/J RI DEFGRID1 loosescf d4 GCP(DFT/SV(P)) printgap
%output
    printlevel normal
end
* xyz 0 1
C -2.5269407553 0.0745222882 0.0002284565
C -1.1177293169 -0.5079248039 -0.0002282626
C -0.0785719157 0.600510589 -0.0001820149
Cl 1.5717022592 -0.0802572474 8.7023e-05
H -3.2627348742 -0.7251369015 8.214e-06
H -2.68731369 0.6896821444 0.8825702803
H -2.6875520956 0.6904494993 -0.8816054682
H -0.976792394 -1.1350429747 0.8818663469
H -0.9771976173 -1.1342609122 -0.882898528
H -0.1620703162 1.2232744326 0.8907039045
H -0.1618074925 1.2226897586 -0.8915390591
*
