! pbe def2-sv(p) def2/J RI DEFGRID1 loosescf d4 GCP(DFT/SV(P)) printgap
%output
    printlevel normal
end
* xyz 0 1
C -2.2514956764 0.2912095091 0.6339364117
C -1.3012208292 0.5132673151 -0.5437130986
C 0.0069104825 -0.1929152852 -0.2737222739
O 0.1787785061 -1.3816354381 -0.3221990035
O 0.9678198321 0.6791484826 0.0578770843
C 2.2391564785 0.1262476083 0.3697174075
H -3.2141035357 0.7531007877 0.4299790548
H -2.4005329621 -0.7734328327 0.7964364999
H -1.8417231043 0.7284541106 1.5415556021
H -1.1103820157 1.576185173 -0.6871159081
H -1.738176405 0.0908778905 -1.4494292198
H 2.6181858135 -0.4510922467 -0.4758906224
H 2.1631539866 -0.5322553787 1.2373564858
H 2.8936369867 0.9670712447 0.583814478
*
