! wb97x-v def2-tzvp def2/J RIJCOSX DEFGRID2 scfconv7 GCP(DFT/TZ) printgap
%output
    printlevel normal
end
* xyz 0 1
C 2.19754946563817 -1.1827140255753092 -0.10495493967736128
C 1.4253675509646544 0.12165173681534111 -0.05424173490628257
O 1.9840586735207846 1.2143094348557704 -0.0283081897299164
N 0.06849160345357591 0.01452838537877466 -0.026184269680434302
C -0.7170088279429714 -1.2244943192382929 -0.03696556044174715
C -2.122831770083132 -0.7437169808040704 0.3362110726480077
C -2.176799553602959 0.6606229319369431 -0.27634963788463224
C -0.7787589433804606 1.2146556893241272 0.0061291413962506905
H 3.24291068002476 -0.9500744226515994 -0.3049377368892706
H 1.8163200974151783 -1.8604045917975411 -0.8752509761927938
H 2.1304081046346437 -1.7025790361317683 0.8572558795813834
H -0.7153684530060482 -1.6861220128551093 -1.0367922725103023
H -0.32286006869997924 -1.9581740659115736 0.6741547874916493
H -2.9036185279350475 -1.4124048259845279 -0.03455822040440293
H -2.215261651969076 -0.6801132847236131 1.426322595841548
H -2.341578337696379 0.5905082458681354 -1.3576286715833275
H -2.9671081140953133 1.2844703685671717 0.14781738206940703
H -0.4332064323035677 1.9428640095704357 -0.7329780561034113
H -0.7206686555721812 1.694623227810868 0.992935939234092
*
