! r2scan-3c def2/J RI DEFGRID2 scfconv6 printgap
%output
    printlevel normal
end
* xyz 0 1
C -1.4238614927 -1.0625762027 1.1033132519
C -1.0143682186 -0.0851256658 -0.0071274595
C -1.45071935 1.3333624789 0.3501716105
C -1.6384071314 -0.5205562467 -1.3361067828
C 0.5001799845 -0.2040448969 -0.140864562
O 1.0622715439 -1.1611510044 -0.6076260889
O 1.1520533558 0.8586823482 0.3417870598
C 2.5698934549 0.8034673371 0.2797283283
H -2.5063043233 -1.0722282521 1.2080679292
H -1.0855410326 -2.0672389571 0.8613736808
H -0.9857517766 -0.7669940323 2.0544136345
H -2.5355336909 1.3736833708 0.420738811
H -1.126432569 2.0391674414 -0.4103592692
H -1.0284135586 1.6399934613 1.3031450388
H -1.391412651 0.1878260939 -2.1239947461
H -1.2593686957 -1.4984967049 -1.6212998285
H -2.7202449586 -0.573575725 -1.2423412428
H 2.8960861655 0.5754147819 -0.7369576483
H 2.9483085278 0.0289896239 0.9501877874
H 2.9275119755 1.7825169157 0.5882929101
*
