! pbe def2-sv(p) def2/J RI DEFGRID1 loosescf d4 GCP(DFT/SV(P)) printgap
%output
    printlevel normal
end
* xyz 0 1
C -1.931741338 -1.2005874383 2.14809e-05
C -0.549033404 -1.2040526257 -0.0001022743
C 0.1309994641 0.0002545448 -0.0002185629
C -0.5500663172 1.2067019772 -0.0001135541
C -1.9297592264 1.206280511 2.68112e-05
C -2.6309220664 0.0020678577 5.39454e-05
O -3.9856918284 0.0514865079 6.42766e-05
Br 2.0370769465 -0.0012143759 3.84997e-05
H -2.4700007633 -2.1387919835 4.38582e-05
H -0.0068152854 -2.1368971175 -0.0001374386
H -0.0056929742 2.1381508696 -0.0001174507
H -2.4845574649 2.1304062253 5.73719e-05
H -4.3528839933 -0.8409828593 3.93904e-05
*
