! pbe def2-sv(p) def2/J RI DEFGRID1 loosescf d4 GCP(DFT/SV(P)) printgap
%output
    printlevel normal
end
* xyz 0 1
C 0.6043351188 1.7033193784 -0.0370506227
C 1.3881443615 0.4058267544 -0.2534725957
H 1.6173804475 0.2846831408 -1.317689896
C 0.5445413285 -0.7941450273 0.2104048169
H 0.3524671765 -0.70053268 1.2965428915
C -0.8073913023 -0.7745731194 -0.5212604898
H -0.635055401 -0.9304015522 -1.5898434476
C -1.4630669553 0.6076546864 -0.3030497488
H -2.3574801929 0.6886283289 -0.9375665315
O -0.6430108237 1.6712310589 -0.701952185
O -1.8047708345 0.6898767544 1.054659681
O -1.6733944482 -1.7882041465 -0.1159448401
O 1.2166869138 -1.9973664276 -0.0496216536
O 2.6357024639 0.414858525 0.3992143037
H 1.1410666789 2.5569003622 -0.4532310279
H 0.4554579923 1.8599233547 1.0426407881
H -2.2877346779 1.510280544 1.2069521325
H -1.8569733719 -1.6679373743 0.8248374618
H 2.1636648296 -1.8324113321 0.0563139108
H 2.4973380641 0.5757834018 1.3411888844
*
