! pbe def2-sv(p) def2/J RI DEFGRID1 loosescf d4 GCP(DFT/SV(P)) printgap
%output
    printlevel normal
end
* xyz 0 1
C 0.8645553685 1.4652230345 -0.5397095592
C 1.4076726395 0.2395558682 0.2247367761
H 2.48654659 0.1501391841 0.0527811564
C 0.733036967 -1.035665996 -0.3240775785
H 1.0828011695 -1.9003227642 0.2480056932
C -0.8143171665 -0.9740474126 -0.2036962729
H -1.2120014101 -1.5169392966 -1.0704323952
C -1.2881664643 0.5049661118 -0.2602850642
H -2.2702662506 0.5832312029 -0.7374639277
O -0.4187007018 1.2378003078 -1.0979988993
O -1.4294513042 1.0381488734 1.0101200922
O -1.2912791923 -1.6200408364 0.9392693346
O 1.1342515065 -1.2443559247 -1.6511637267
O 1.1454399634 0.3322735104 1.6171294486
H 1.5055423821 1.7104954085 -1.3886337256
H 0.8314688213 2.3341924704 0.1347625506
H -0.5826670703 0.9254611086 1.4860770481
H -1.4693138257 -0.9506843594 1.617567063
H 0.724755517 -0.5656973115 -2.203494432
H 1.7923225721 0.9128823584 2.0307924303
*
