! wb97x-v def2-tzvp def2/J RIJCOSX DEFGRID2 scfconv7 GCP(DFT/TZ) printgap
%output
    printlevel normal
end
* xyz 0 1
C -2.4795944354227903 0.07569996804785266 0.3798139459818234
C -1.237157694724284 0.671074942421412 -0.26726589110928345
C 0.03143886757345666 -0.019372339792424045 0.17173238448023578
O 0.09425406053133643 -1.0252730718764662 0.8381302823152008
O 1.121790044256404 0.636288907633644 -0.29754177781760677
C 2.385813377014808 0.03121669219258326 0.04642733905014106
H -2.5601091708510353 -0.9907424037197984 0.15824095776789499
H -2.4421174207175658 0.18271646814619089 1.466712798000709
H -3.378150398813959 0.5785131827082511 0.012752428746028782
H -1.1351110426111743 1.7402333172375506 -0.05012844126782117
H -1.283004658723451 0.5962382125480672 -1.361270274347481
H 2.5037974386519055 -0.014711139256348496 1.1322472258650684
H 3.1468868490097086 0.6730530323856571 -0.39720541161473233
H 2.4478607504905137 -0.9809904179274788 -0.3619021614127608
*
