! wb97x-v def2-tzvp def2/J RIJCOSX DEFGRID2 scfconv7 GCP(DFT/TZ) printgap
%output
    printlevel normal
end
* xyz 0 1
C -2.4680696776080913 0.1797482251705528 -0.46999031231353444
C -1.235646918082654 0.65149315285839 0.2885291952605001
C 0.03763470584650449 0.032296083593766234 -0.23593504430664644
O 0.10745037407119838 -0.8214232689182509 -1.0885368189180997
O 1.1204191533629988 0.5595991650904015 0.3864127342336654
C 2.387627171039696 0.0197328089713401 -0.0439455197039997
H -2.3974154172710005 0.44287836551979604 -1.5283803007180548
H -2.5705402285424745 -0.9061532574582878 -0.4088655031687091
H -3.3692660321663253 0.6403036780556923 -0.05656256693047733
H -1.3034002424304352 0.40499855811607105 1.3556592351663714
H -1.123816193907689 1.741045094908449 0.24614353912145262
H 2.434334973753926 -1.0536302831194273 0.15918201971989035
H 3.1430383810514866 0.5539922020775666 0.5322654343836167
H 2.528712229000726 0.1861667600794785 -1.1152051927825772
*
