! pbe def2-sv(p) def2/J RI DEFGRID1 loosescf d4 GCP(DFT/SV(P)) printgap
%output
    printlevel normal
end
* xyz 0 1
C 0.8391610083 1.4828197991 -0.4763573985
C 1.4057773928 0.2455514851 0.2479989584
H 2.4875791743 0.1865233314 0.0894515246
C 0.7587773499 -1.0237135151 -0.3556681129
H 1.15708025 -1.9021920963 0.1664299425
C -0.7798863182 -0.9928900485 -0.1959727234
H -1.2003823841 -1.5802155525 -1.0269777372
C -1.2884005238 0.4738111908 -0.3077860686
H -2.2494950642 0.499050699 -0.8446192599
O -0.4203025638 1.2244858541 -1.0947681733
O -1.4335553993 1.0433337582 0.9634154219
O -1.2354785211 -1.4963403753 1.0384075722
O 1.1089144178 -1.1864983792 -1.704296464
O 1.2250980191 0.3078807866 1.6348844066
H 1.489161061 1.8037605323 -1.2915990741
H 0.7383676268 2.3038732195 0.2431033373
H -1.834657664 0.3651701485 1.5262498595
H -0.8316400421 -2.3556321879 1.1992586986
H 0.775189354 -0.4253078279 -2.197031692
H 0.3114357828 0.5941661801 1.8019792171
*
