! wb97x-v def2-tzvp def2/J RIJCOSX DEFGRID2 scfconv7 GCP(DFT/TZ) printgap
%output
    printlevel normal
end
* xyz 0 1
C -2.5157660272437 0.7358542317469814 -0.002228051011164348
C -1.2288065703545996 -0.03558739904579934 -0.022937424813528787
C -1.193776887158347 -1.4259962635815118 -0.09694840827298415
C 0.013092141554166242 -2.118733237040581 -0.1140625237699558
C 1.209178232048469 -1.4143399863250847 -0.05632629367346141
C 1.221639611985895 -0.021117330798674276 0.018106583586455047
C -0.008194474073224944 0.6480408413008147 0.033174057277057536
O -0.08390517141561762 2.0176034159458975 0.10390586299973441
C 2.5100481118585685 0.7528512901203837 0.08005019889155672
H -3.371992793083922 0.05885861445981378 -0.054567960471921424
H -2.6004280448799006 1.3373692110355433 0.9096868153146741
H -2.5702422737510022 1.4352103601075579 -0.8440037265663094
H -2.1327591339284644 -1.9705745127522094 -0.1416087285237471
H 0.02043375392946682 -3.2017762457749304 -0.17215925457191353
H 2.1557183420212236 -1.947522354498856 -0.06905449914879856
H 0.806554405434283 2.3830548162973195 0.1410308023730646
H 3.3652259932174906 0.07424981587608964 0.06259351329028852
H 2.622448835435214 1.4349930735700338 -0.7736707902039147
H 2.5898028554627857 1.347921978154831 1.0000143738289988
*
