! wb97x-v def2-tzvp def2/J RIJCOSX DEFGRID2 scfconv7 GCP(DFT/TZ) printgap
%output
    printlevel normal
end
* xyz 0 1
C -2.513408211196742 0.08077288655627805 0.006424789049581749
C -1.1044685269362633 -0.5127997873709005 0.03797302370894876
C -0.04016389746081953 0.5726781032528361 -0.06102487787191972
S 1.6905371992102742 -0.06110521169824771 0.0446583820128772
H -3.2716831203459344 -0.7052045347348614 0.06471522789202142
H -2.6724097796395685 0.7621911846208971 0.8487911210577562
H -2.6857602964187537 0.644463754308205 -0.9164753629078667
H -0.97937994733737 -1.2192815060706685 -0.7915726169355709
H -0.9507387739464813 -1.0838962542224004 0.9598322953752315
H -0.15207884045396472 1.1538982606329597 -0.9820209279761972
H -0.12746589451778498 1.2730241956758488 0.7770056318203914
H 1.6428876421714704 -0.8080145163400058 -1.0731422338834233
*
