! pbe def2-sv(p) def2/J RI DEFGRID1 loosescf d4 GCP(DFT/SV(P)) printgap
%output
    printlevel normal
end
* xyz 0 1
C -1.3335027318 -0.3238422751 -0.384517231
C -0.4475235494 -1.2972912348 0.3845121194
C 1.0201293352 -1.1207541558 -0.0247310083
C 1.3247704821 0.3333887889 -0.4058718522
C 0.4562320488 1.2877546705 0.4057990567
C -1.0200972591 1.1207436832 0.0247987782
H -2.3864767651 -0.5414802284 -0.1964075686
H -1.1579408023 -0.4579416861 -1.4535919673
H -0.5646744335 -1.1099756021 1.453588469
H -0.7629945792 -2.325189737 0.1963157445
H 1.6623837368 -1.4288943351 0.8027003684
H 1.2485900436 -1.7689731913 -0.8730932764
H 2.3816954507 0.5467107505 -0.2358456921
H 1.125704211 0.4931662328 -1.467271566
H 0.5967802224 1.0746965521 1.4672002543
H 0.7677240602 2.3199995991 0.2356680541
H -1.6439131632 1.4087280268 0.8733143095
H -1.2669771987 1.7891598534 -0.8024563249
*
