! wb97x-v def2-tzvp def2/J RIJCOSX DEFGRID2 scfconv7 GCP(DFT/TZ) printgap
%output
    printlevel normal
end
* xyz 0 1
C -1.4249021562475512 -0.31093534837321735 -0.23345830314644997
C -0.4431297711682918 -1.3890928371940214 0.2332223404482881
C 0.9817810315516979 -1.0781006681475735 -0.23339444305401952
C 1.4248912281774242 0.310939186773265 0.23348944684596132
C 0.4431303874925222 1.3891095752101308 -0.23318308235956267
C -0.9817935321308252 1.0781173046048922 0.2333938514435819
H -2.4346378491599276 -0.5310514986342848 0.1323977896553685
H -1.4759889910983903 -0.32165492850864685 -1.3314039449243134
H -0.4588599159619656 -1.4381245320225946 1.331251577058652
H -0.7571194766963172 -2.3739154218254326 -0.13189999194404559
H 1.677146643795923 -1.84270615499204 0.13221191109312713
H 1.0170107416321685 -1.1166812004122353 -1.331405178831967
H 1.4759639674494218 0.3216346538570009 1.3314356137252858
H 2.4346329684431263 0.5310592011816242 -0.13234852436599356
H 0.7571143648991738 2.373927136740267 0.13195975731057596
H 0.45888638264514064 1.4381554494555828 -1.3312104478942441
H -1.0170667555001274 1.1167441076587132 1.3313998419587165
H -1.677147420564514 1.842706240862621 -0.13226982525706638
*
