! wb97x-v def2-tzvp def2/J RIJCOSX DEFGRID2 scfconv7 GCP(DFT/TZ) printgap
%output
    printlevel normal
end
* xyz 0 1
C 1.5143853818005885e-06 -2.1203005803944563 -0.00014369873643156129
C 1.2113528605893875 -1.43703177307466 -9.915547001531972e-05
C 1.1901082965224896 -0.04743945864503031 1.4783827229584155e-05
C -2.6879850326297227e-05 0.6702107559865844 9.096408386075209e-05
C -1.1901471906073144 -0.0474635479335186 5.500870330340354e-05
C -1.2113637371139183 -1.4370587166267146 -6.568782160956063e-05
Cl -2.7036429755589086 0.8346134566059886 0.00013442078266683136
Cl 2.703584011492609 0.8346711549067112 5.740808573714191e-05
H 1.940092433294677e-05 -3.205159288357157 -0.00024433734540137955
H 2.154816551460156 -1.9686586075691483 -0.0001591982184387246
H -3.508939010616424e-05 1.7523933716180513 0.0001671898174098936
H -2.1548205663430737 -1.9687010707823511 -0.00010167719933143715
*
