! r2scan-3c def2/J RI DEFGRID2 scfconv6 printgap
%output
    printlevel normal
end
* xyz 0 1
C 3.5652058492 0.6909497063 -0.0001394285
C 3.5652191147 -0.6910005545 -7.0947e-05
C 2.3661798509 -1.3859486666 5.0148e-06
C 1.1650382987 -0.6979208065 0.0001476748
C 1.1650337787 0.6979852929 -1.64969e-05
C 2.3661506538 1.3859321353 -0.0002132198
O 7.9086e-06 1.4287178053 0.000195321
C -1.165025593 0.6979760425 4.51986e-05
C -2.3662085296 1.3859576692 0.0001112541
C -3.5652589605 0.6909230046 -5.7422e-06
C -3.5652098902 -0.6910306906 -0.0002890566
C -2.3661313105 -1.3859779506 -0.0003044005
C -1.164995623 -0.6979194247 -3.99065e-05
O 9.35e-08 -1.4286479206 0.0004474624
H 4.4958593381 1.2365240915 -0.0005182701
H 4.4958225187 -1.2365798787 -0.0001844147
H 2.3398509827 -2.4638527269 4.63671e-05
H 2.3398394699 2.4638454842 -0.0004636246
H -2.3399215153 2.463839566 0.0003348881
H -4.4959741278 1.2363706522 0.0005164433
H -4.4958914727 -1.2365146053 -0.0002583452
H -2.3396840833 -2.4638571931 -0.0004999352
*
