! pbe def2-sv(p) def2/J RI DEFGRID1 loosescf d4 GCP(DFT/SV(P)) printgap
%output
    printlevel normal
end
* xyz 0 1
C 0.8493601988 1.2629459473 -1.0176881398
C 1.4485954501 0.3192838826 0.0237998019
H 2.4959835998 0.1129729131 -0.2492695722
C 0.6656913615 -1.0137636761 0.0078973755
H 0.6750065799 -1.4284787234 1.0261125047
C -0.8071372428 -0.802110478 -0.4240285367
H -0.8691895971 -1.0087741677 -1.496520755
C -1.2758088699 0.6345167163 -0.1160606655
H -2.2955997447 0.7761753883 -0.4957480409
O -0.4837436771 1.6254786554 -0.71351612
O -1.3749377165 0.7996962751 1.2689613447
O -1.6649643127 -1.6998056948 0.2187865992
O 1.238827028 -1.9102704661 -0.909743935
O 1.3916447238 0.8554165294 1.3315669459
H 0.9006483594 0.7688682657 -1.9973029797
H 1.4017546377 2.2064831956 -1.067485698
H -0.4713502909 0.8582509831 1.6310322742
H -1.9050278272 -1.307332126 1.0728163578
H 2.0413233357 -2.2913177429 -0.5372362757
H 1.7095037158 1.7662517492 1.3135120294
*
