! r2scan-3c def2/J RI DEFGRID2 scfconv6 printgap
%output
    printlevel normal
end
* xyz 0 1
C 0.8439413624 1.3844760492 -0.5671179063
C 1.5900398332 0.1437265176 -0.0586307621
H 2.5348460342 0.0567511211 -0.6140628387
C 0.7542923611 -1.1223722399 -0.3364090929
H 1.1949583243 -1.9697818232 0.220636574
C -0.6875908999 -0.9103433679 0.1656584962
H -1.3189627442 -1.7638267346 -0.1087913583
C -1.266857765 0.3764100352 -0.4656622267
H -1.2773975356 0.2954561848 -1.5639433427
O -0.4635638289 1.4697084891 -0.064559659
O -2.5616626823 0.596091043 -0.0573257165
O -0.7394583152 -0.8115878325 1.5639152792
O 0.8088601089 -1.3602740887 -1.7205537884
O 1.829951167 0.3154483762 1.3202054399
H 0.8342015098 1.3564824464 -1.664883197
H 1.3543311248 2.2821286251 -0.216588468
H -2.572309184 0.5690383954 0.9109416413
H -0.1768219539 -0.0598867011 1.8181369985
H 0.2649609969 -2.1273228727 -1.9330529869
H 2.3309904379 -0.4362456659 1.6569565207
*
