! wb97x-v def2-tzvp def2/J RIJCOSX DEFGRID2 scfconv7 GCP(DFT/TZ) printgap
%output
    printlevel normal
end
* xyz 0 1
C -2.530315658490312 0.0766015050401495 0.0001343200685329492
C -1.1177667904989699 -0.5115173301633605 -0.0002331366147849935
C -0.08228737914715367 0.5958826297441477 -0.0002109037807282483
Cl 1.614536013339552 -0.07673201266414197 -0.0002364980365616338
H -3.2797349485684304 -0.7192647593308052 -8.894427347734255e-06
H -2.702005415670467 0.6972615765619496 0.885615180203158
H -2.702257624544208 0.6978144887122523 -0.8849112711671395
H -0.9697261576361453 -1.1454698471453484 0.880236901443585
H -0.970033806312119 -1.1451509292191733 -0.8809845426419876
H -0.16370778211770765 1.2245177703462513 0.8902006214816505
H -0.16370861181655072 1.224562670424663 -0.8905908672661189
*
