! pbe def2-sv(p) def2/J RI DEFGRID1 loosescf d4 GCP(DFT/SV(P)) printgap
%output
    printlevel normal
end
* xyz 0 1
C -2.2360347011 0.3155872644 0.6470679781
C -1.3064764627 0.4953147816 -0.5543332502
C 0.0058489645 -0.2012273921 -0.2802166777
O 0.1870351575 -1.3885513953 -0.3291445784
O 0.9579747198 0.6777451488 0.0583233434
C 2.2312638837 0.1339811818 0.3781193641
H -1.8094648897 0.7831380767 1.5315198258
H -3.2014025817 0.7722162858 0.4442508403
H -2.3842298936 -0.7424467199 0.8488842808
H -1.118675331 1.5527994232 -0.7366834351
H -1.7585095716 0.0417444337 -1.4371009236
H 2.6230161177 -0.4341975942 -0.4678636431
H 2.1533331311 -0.5310448541 1.2405493061
H 2.8762962879 0.9790859342 0.603660024
*
