! wb97x-v def2-tzvp def2/J RIJCOSX DEFGRID2 scfconv7 GCP(DFT/TZ) printgap
%output
    printlevel normal
end
* xyz 0 1
C -1.2736310263293766 0.2609968184108998 3.611329932450731e-05
C 0.013376884586752319 -0.5644369960171053 1.4174975727506702e-05
N 1.2624103420029253 0.21143754366486728 -6.310610546864734e-05
H -2.1604257766092303 -0.38327685650232785 0.0003076002714357203
H -1.3253346836239481 0.904060549279783 0.8856599838261642
H -1.3256139360003327 0.9036999266649661 -0.885832818880022
H 0.029699144166815652 -1.2236734419316069 -0.8768046802032512
H 0.02977046767340968 -1.2236057783042973 0.8768822412892496
H 1.276682057291497 0.8253980226663266 -0.8086807785518302
H 1.2767706594458805 0.8253985230576253 0.8085531735133691
*
